18
Coordinates from ORCA-job orca
  C   -1.64415333636033     -0.84794547637905     -1.43988439807005
  C   -0.63982262969465      0.10207087993410     -1.31454159213033
  C   0.10638510489492      0.18533762244387     -0.13689338885143
  C   -0.15705172856787     -0.70251737114806      0.90906209120758
  C   -1.16095667385091     -1.65138267747203      0.78061156402490
  C   -1.90667366658760     -1.72604903853308     -0.39295304314884
  H   -2.22211798901440     -0.90208972333803     -2.35313005743204
  H   -2.68735296759224     -2.46915180202533     -0.49116756487625
  H   -0.43277013330379      0.78532263043419     -2.12914054731807
  H   0.42872395241859     -0.67436480022487      1.81984306467745
  H   -1.35845993699175     -2.33713963473143      1.59407150986825
  C   1.14539343721418      1.22898106010052     -0.03748339347590
  N   1.43416478365773      1.78804467536633      1.22705630737202
  H   1.13772784556870      1.95773390774249     -0.83554096001809
  H   2.42881636479025      0.36806751023546     -0.91693784410604
  H   1.55528133721380      2.79119493124276      1.25128985471298
  H   0.92487321397766      1.42226276752014      2.01940479414264
  Cu  3.04799302222770      0.68162453883202      0.44633360342122
