18
Coordinates from ORCA-job orca_IRC_B
  C   -3.07068974758725      1.83825802017041      1.69009926878282
  C   -1.96125518954299      2.62668231388487      1.42031213220186
  C   -0.71250484736756      2.31600967805958      1.96186656100460
  C   -0.60021263090638      1.20740212340498      2.79945312024253
  C   -1.71675113997061      0.42298960918179      3.08298431786289
  C   -2.95118119032687      0.73004984137178      2.52391704056295
  H   -4.02736242614983      2.09039867696475      1.25052432148274
  H   -3.81446166685202      0.11222037953194      2.73418865168259
  H   -2.05751212518831      3.49237317554833      0.77534107876544
  H   0.35270931109743      0.92875946474102      3.23377037578855
  H   -1.61675276404917     -0.43523152971769      3.73551212676409
  C   0.45750756605024      3.16489625922861      1.53708196801823
  N   1.61787999542684      3.15832371168470      2.48479472177736
  H   0.12811084650617      4.19361036098727      1.39707637602728
  H   0.81120913169787      2.81030309918694      0.56834732635063
  H   1.89063701249560      4.11690161878337      2.68519856887937
  H   1.34165891604232      2.76682914714821      3.38193491656843
  Cu  3.17816226992359      2.21502437240026      1.79479484760190
