32
Properties=species:S:1:pos:R:3 pbc="F F F"
C        8.82798764      -0.72923719      -0.21980796
C        9.64720764       0.40132281      -0.05602796
C        9.37118764      -2.01621719      -0.16348796
C       10.73913764      -2.18955719       0.05608204
C       11.02826764       0.21373281       0.16385204
C       11.56615764      -1.07620719       0.21909204
H       12.62668764      -1.21243719       0.38803204
H       11.15850764      -3.18639719       0.09917204
H       11.69849764       1.05282281       0.29167204
H        7.76473764      -0.61273719      -0.39123796
H        8.73069764      -2.87946719      -0.29048796
C        9.00217764       1.76893281      -0.12848796
N        9.95429764       2.85972281       0.06699204
H        8.20434764       1.83886281       0.64416204
H        8.53106764       1.88010281      -1.12939796
H       10.30117764       2.83572281       1.05381204
H        9.44922764       3.76619281      -0.06206796
C       -2.46950657      -0.54117045      -0.11252192
C       -1.07283657      -0.69096045      -0.09875192
C       -0.52041657      -1.97965045      -0.22782192
C       -1.35452657      -3.09358045      -0.36770192
C       -2.74232657      -2.93319045      -0.38011192
C       -3.29917657      -1.65825045      -0.25265192
H       -2.91808657       0.43999955      -0.01486192
H        0.55217343      -2.12735045      -0.22082192
H       -0.92436657      -4.08190045      -0.46654192
H       -3.38600657      -3.79657045      -0.48847192
H       -4.37448657      -1.53509045      -0.26240192
C       -0.21642657       0.50638955       0.05072808
N        1.06287343       0.41467955       0.06831808
H       -0.67253657       1.48676955       0.14814808
Cu       2.15844343       2.02501955       0.26814808
