18
Coordinates from ORCA-job orca
  C   -3.04220246065589      2.12587530287269      1.94410382023915
  C   -1.84849736984872      2.71468158867248      1.53827996918171
  C   -0.62687408032107      2.09902826214307      1.81099222170087
  C   -0.61826157251634      0.87991395193305      2.49333048204163
  C   -1.80792905956104      0.29383109899810      2.90358392317306
  C   -3.02353076458312      0.91667311603618      2.62961830092814
  H   -3.98440177037679      2.61104686906589      1.72323298540432
  H   -3.95127507530972      0.45648210431836      2.94477665070461
  H   -1.86484105677609      3.65777420540000      1.00483988071138
  H   0.32473247482298      0.38313190775738      2.69217034814477
  H   -1.78962791363150     -0.65284919171155      3.42842895240575
  C   0.64907711072191      2.76565871396471      1.40947237148540
  N   1.43028826305992      3.30190072029378      2.55201120529344
  H   0.49269541125776      3.55886890615383      0.68560202254503
  H   1.48829465370658      1.84354371355848      0.76836251979672
  H   0.84992072047512      3.97531750680641      3.05227221733710
  H   1.61188280362809      2.55277343897050      3.21702337012645
  Cu  3.13300968590833      4.15080778476547      2.11493875877928
