18
Coordinates from ORCA-job orca
  C   -2.95523338365059      1.83127799390791      1.61572555512290
  C   -1.82507950001051      2.60696665341825      1.40412887511971
  C   -0.62980035170847      2.30337341596674      2.06194592168218
  C   -0.57661509231001      1.20211672660625      2.92165146060991
  C   -1.70845746133823      0.42770389642599      3.12905396022910
  C   -2.89925033543619      0.74036667399248      2.47821934629378
  H   -3.87912341314132      2.07703604482840      1.10883872611033
  H   -3.77973913917861      0.13240566316091      2.64085913223644
  H   -1.86426927700015      3.45362223408271      0.72978650993030
  H   0.34522318827469      0.92940587731047      3.42094148361618
  H   -1.66133875935520     -0.42365621316274      3.79523638127890
  C   0.52674622133559      3.18185065670254      1.83160312149223
  N   1.51185238923261      3.31273975327994      2.80990629111631
  H   0.32416491779132      4.09442687138343      1.28930608157494
  H   0.99744074777415      2.43279302117356      0.05799566507867
  H   1.92123785995420      4.22743038455025      2.94229590797900
  H   1.44115532664643      2.75452868705817      3.64895143688015
  Cu  2.13354606212052      2.35007165931409      1.02659414364831
