18
Coordinates from ORCA-job orca
  C   -2.95427213552355      1.83020862805397      1.61411762277567
  C   -1.82458025000725      2.60708381830578      1.40484838868971
  C   -0.63031481547168      2.30482475099268      2.06541896093869
  C   -0.57775383940604      1.20356722454235      2.92550967807410
  C   -1.70909278172774      0.42803068261770      3.13040888198870
  C   -2.89880776960149      0.73944880493662      2.47680947717844
  H   -3.87733262693262      2.07478485827897      1.10517554521321
  H   -3.77895053263016      0.13047656486378      2.63753364719165
  H   -1.86313438517085      3.45348682310645      0.73017995870570
  H   0.34333918025849      0.93210485176901      3.42682554083922
  H   -1.66266388535447     -0.42325527184526      3.79671267835722
  C   0.52444497193068      3.18468782159644      1.83745466745603
  N   1.51280859998870      3.31239375921388      2.81083473145645
  H   0.32333776776905      4.09587820263602      1.29233706887660
  H   0.99800537269433      2.43137692635104      0.04405919221165
  H   1.92633287363795      4.22547577931039      2.94219290751152
  H   1.44586281351537      2.75270775342745      3.64930650751536
  Cu  2.12523144203149      2.35117802184211      1.02331454501941
