18
Coordinates from ORCA-job orca
  C   -2.97884657193287      1.86589853825180      1.66608677267129
  C   -1.84344935948856      2.62585999295045      1.41810417171865
  C   -0.62651142153977      2.28459928521447      2.01168961902132
  C   -0.55602656789212      1.16363576329768      2.84352105005728
  C   -1.69169218457777      0.40603522416155      3.08802753809609
  C   -2.90559839842011      0.75614418487366      2.50145480881083
  H   -3.92017224293451      2.14114006701016      1.20871464737922
  H   -3.78977511374727      0.16205552743890      2.69278194047935
  H   -1.89871688104640      3.49036860915257      0.76793125165897
  H   0.38561584325818      0.86463023662032      3.28854532420042
  H   -1.62994141717644     -0.46151237102691      3.73191912378862
  C   0.54421543431193      3.14555662894987      1.75440552431432
  N   1.48432663297128      3.34012519378992      2.79018884550527
  H   0.33544224456284      4.04462837568042      1.19192940473881
  H   1.07301724374846      2.37654849851569      0.23634122865428
  H   1.81517923383022      4.28634505917303      2.91972567679456
  H   1.32293998183619      2.84313722554637      3.65522203099524
  Cu  2.30245354423701      2.29926396039919      1.14645104111466
