18
Coordinates from ORCA-job orca
  C   -2.99898032285117      2.17669225430875      2.02959277898028
  C   -1.79299814649726      2.73012019324310      1.61332605376074
  C   -0.59458341772744      2.04078256072112      1.80316945770647
  C   -0.62280410991058      0.78496869175100      2.41205182188331
  C   -1.82659865935651      0.23076878192678      2.83032190324148
  C   -3.01697648325916      0.92699019605870      2.64061596303628
  H   -3.92355041278705      2.71735551797538      1.87197248338613
  H   -3.95555782300087      0.49319541539725      2.96124963261435
  H   -1.78165601302006      3.70149073478249      1.13244971074147
  H   0.30236226547054      0.23704809310472      2.54956826062820
  H   -1.83757069789957     -0.74631083179421      3.29644123790184
  C   0.70557071138545      2.66885551487267      1.39834678597849
  N   1.36491925209216      3.40346723596895      2.51816637672299
  H   0.57808460588649      3.36207238518554      0.57097079418449
  H   1.51980472989801      1.78379982150563      1.01579825129522
  H   0.72701837772469      4.12278396758715      2.85763971307924
  H   1.49615469084408      2.76550623852907      3.30090268053730
  Cu  3.07982145300868      4.23487322887463      2.11045609432047
