18
Coordinates from ORCA-job orca
  C   -2.96835286257923      2.18746411458046      2.04764461076861
  C   -1.75553737175257      2.72233493205703      1.62896199579002
  C   -0.56995650893123      2.00711945159543      1.79866956982119
  C   -0.61750978763346      0.74360838840631      2.38957588855557
  C   -1.82951624988448      0.20555101590672      2.80835011053911
  C   -3.00654600658996      0.92807736514714      2.63930809436663
  H   -3.88346856063613      2.74846925780553      1.90656714360632
  H   -3.95108378913617      0.50873234215158      2.96173591052543
  H   -1.72871194389857      3.69935209346659      1.15989855128210
  H   0.29762731074794      0.17654254365676      2.51920813261898
  H   -1.85608397424862     -0.77737346741088      3.26143061866148
  C   0.75474349021594      2.59451809406666      1.38627023266436
  N   1.36298882548181      3.41311878527139      2.49265794319477
  H   0.61937701097152      3.26687370751593      0.53937151063215
  H   1.29499670640786      2.00710990456085      1.18938935628623
  H   0.70939033122117      4.14487190488107      2.76221957847620
  H   1.46573064906409      2.82299463976085      3.31669849207611
  Cu  3.08437273118055      4.23509492657920      2.10508226013336
