18
Coordinates from ORCA-job orca
  C   -2.98671395817393      2.18340881986861      2.03935850204754
  C   -1.77760368511241      2.72828650184997      1.62172200425135
  C   -0.58482458747578      2.02668937055036      1.80097890138142
  C   -0.62204710341102      0.76706027651169      2.40104360331243
  C   -1.82944450043034      0.22042674515655      2.82030804552733
  C   -3.01382089216003      0.92897039634029      2.64103320960435
  H   -3.90699646403670      2.73366692632251      1.88992546316266
  H   -3.95505136213750      0.50176268741380      2.96278201299741
  H   -1.75930603163523      3.70263771238485      1.14690749242689
  H   0.29861536921470      0.21021380358946      2.53371241517891
  H   -1.84739010922406     -0.75959070035903      3.28004408004366
  C   0.72572879319030      2.63843166600002      1.39224114785315
  N   1.36087888838459      3.41034052161203      2.50827702825779
  H   0.59413317168550      3.32352253530984      0.55692188548554
  H   1.45641773418816      1.84615653105509      1.08034728871487
  H   0.71187626025713      4.13078352902913      2.82096704833625
  H   1.48536337517233      2.79158490972217      3.30755526894964
  Cu  3.07264510170474      4.25010776764133      2.10891460246755
