18
Coordinates from ORCA-job orca
  C   -2.97931090100189      2.18621301323507      2.04381533131742
  C   -1.76848927989184      2.72636728173225      1.62545442543273
  C   -0.57888123312393      2.01833858210689      1.79975697345209
  C   -0.62102103900353      0.75691579084440      2.39558942629058
  C   -1.83044938686958      0.21443240391885      2.81510550807642
  C   -3.01148382534614      0.92952758333756      2.64092543194499
  H   -3.89720323148127      2.74155729616747      1.89846061676518
  H   -3.95419449576624      0.50603855051762      2.96327091659001
  H   -1.74636866354890      3.70204952904559      1.15345561427544
  H   0.29711684265738      0.19527328396812      2.52627788328166
  H   -1.85230231056495     -0.76695569272010      3.27174844598543
  C   0.73741995471190      2.62088211906006      1.38927417923344
  N   1.36007266632110      3.41289244350868      2.50238232611256
  H   0.60369605859999      3.30129057446570      0.54940525626442
  H   1.40643777012760      1.89664101520258      1.12025004023356
  H   0.70657993956527      4.13538897568641      2.79896978686313
  H   1.47854525295937      2.80523389980253      3.31117167961841
  Cu  3.07229588165611      4.25237335011898      2.10772615826122
