18
Coordinates from ORCA-job orca
  C   -2.96604537654189      1.80225924572875      1.59064253467349
  C   -1.87058597258771      2.63909314695022      1.47309099964612
  C   -0.70195950815865      2.37981871491399      2.20905882914260
  C   -0.64909179975215      1.26196127974059      3.05931905372383
  C   -1.74859335296566      0.43301089201135      3.17201723832330
  C   -2.90612417909311      0.69939854504209      2.43833897105144
  H   -3.86504829235106      2.00575776727216      1.02480520069959
  H   -3.76164815630739      0.04294697720676      2.53019264028265
  H   -1.90456223393524      3.49727346373094      0.81407277927579
  H   0.24202156656285      1.03382229787306      3.62940989841672
  H   -1.71011540618349     -0.42524617581210      3.82917106679686
  C   0.39042127578363      3.30170788093667      2.04633709437396
  N   1.54170724738152      3.28524224056073      2.77198122731769
  H   0.20204668212292      4.22177904691513      1.50565780619925
  H   1.50788119027986      2.16473864810148     -0.49739799377849
  H   2.05385721393064      4.15401480561002      2.88186709000561
  H   1.66183072201179      2.62235426171038      3.52954552798835
  Cu  1.90646837980317      2.51452696150763      0.90493003586106
