18
Coordinates from ORCA-job orca
  C   -3.01174292595159      2.16248822316588      2.00348070987461
  C   -1.80944479525369      2.72509730456046      1.58767617816133
  C   -0.60363239423747      2.05673460245529      1.80159693021444
  C   -0.62000159968932      0.81229558919816      2.43466427177666
  C   -1.81932863970269      0.24996407407069      2.85342245653292
  C   -3.01789590751863      0.92537143357308      2.63903564541877
  H   -3.94211863537276      2.68717312625208      1.82717463057603
  H   -3.95309598894923      0.48472183259840      2.96017584175029
  H   -1.80685901147879      3.68752225743580      1.08926963767929
  H   0.31113149019722      0.27924864882991      2.59007136811916
  H   -1.82099610381107     -0.71771180814600      3.33888033912368
  C   0.69041990632953      2.69481520406979      1.39628651679271
  N   1.38448032645167      3.37066795378279      2.52986074954518
  H   0.55157658156962      3.42223897014251      0.60119114526464
  H   1.50153159176690      1.81014484356264      0.94575329716904
  H   0.76090894100505      4.07676608421549      2.91975383563479
  H   1.53248096704993      2.69649756371899      3.27838506523586
  Cu  3.09504619759576      4.21042409651279      2.11636138112937
