18
Coordinates from ORCA-job orca
  C   -2.95909350583357      1.79926560126862      1.58462223993873
  C   -1.86017157622345      2.63114269019471      1.46234765637437
  C   -0.69349411521155      2.37281624552104      2.20056679175232
  C   -0.64531409682051      1.26056086097119      3.05727804998322
  C   -1.74827879489050      0.43599980207055      3.17494784424622
  C   -2.90436382498811      0.70164852359124      2.43945933332018
  H   -3.85687583445363      2.00283800506226      1.01679819934502
  H   -3.76252323453413      0.04919667449967      2.53510296121272
  H   -1.89058109000827      3.48489512159341      0.79737860656123
  H   0.24466106321350      1.03236093534815      3.62921253340584
  H   -1.71293845771777     -0.41804941649135      3.83778469270827
  C   0.40380574861028      3.29207491144411      2.03487062108105
  N   1.54586899441405      3.28242820165686      2.77897286330077
  H   0.21494051048631      4.21378610191842      1.49732780108034
  H   1.42957417381129      2.20388316499366     -0.47545241557706
  H   2.05228778816415      4.15355693336235      2.89413750603029
  H   1.65579838543904      2.62299207099085      3.54067950341784
  Cu  1.90915786654290      2.51306357200408      0.90700521181843
