18
Coordinates from ORCA-job orca
  C   -2.94760943743468      1.81934164100580      1.59943076963791
  C   -1.82199845891165      2.60537820304238      1.40843654495220
  C   -0.63687013102818      2.31629500768551      2.09295812596595
  C   -0.58943793883948      1.21755380716233      2.95792850247292
  C   -1.71699214832528      0.43283042375605      3.14377831864974
  C   -2.89711995160501      0.73164648475692      2.46672766580662
  H   -3.86330873759424      2.05307704255869      1.07260718731903
  H   -3.77423703685257      0.11477782744805      2.61306307455900
  H   -1.85446711459562      3.44847686715987      0.72948417635935
  H   0.32362359303989      0.95569126772540      3.47826584772905
  H   -1.67561743605837     -0.41594899670232      3.81347618020902
  C   0.50747051117308      3.20475434189534      1.87989023549575
  N   1.52202221046594      3.30594727595745      2.81711964325441
  H   0.31377006648932      4.11577491183071      1.33089615650771
  H   1.01572649009605      2.41804965408298     -0.06870303866975
  H   1.96843762514407      4.20515995860559      2.94003596593183
  H   1.49429719353409      2.72638319311974      3.64470954749499
  Cu  2.05477070130283      2.37927108890897      0.99293509632369
