18
Coordinates from ORCA-job orca
  C   -2.97337180580003      2.18735216157139      2.04617888973694
  C   -1.76135135999663      2.72425135737869      1.62747795468366
  C   -0.57403956922318      2.01196915035053      1.79898575324606
  C   -0.61949147418210      0.74939327240508      2.39208329810373
  C   -1.83041194058010      0.20971164057453      2.81146345440571
  C   -3.00909581365853      0.92920752204498      2.64033709938979
  H   -3.88961026115393      2.74606801083930      1.90330130148508
  H   -3.95286629329220      0.50827645294193      2.96294052562729
  H   -1.73647799809949      3.70067697109750      1.15710560493363
  H   0.29685779990381      0.18449019223085      2.52203898487936
  H   -1.85503314033227     -0.77250058222432      3.26619608026346
  C   0.74697229065451      2.60654901063437      1.38719841346649
  N   1.36111957103509      3.41339944120812      2.49740534253468
  H   0.61157245912396      3.28346925092658      0.54403310436538
  H   1.35228403141412      1.95083227862320      1.15542855288430
  H   0.70627435632867      4.13948736113147      2.78038666190658
  H   1.47264605250043      2.81474786752530      3.31399821831661
  Cu  3.07648309535835      4.24707864073913      2.10648075976990
