18
Coordinates from ORCA-job orca
  C   -2.96740639763566      2.18740050060648      2.04793743133178
  C   -1.75446509672699      2.72199859433951      1.62933705735415
  C   -0.56919246544741      2.00628036563510      1.79870932228368
  C   -0.61706276261691      0.74255172182495      2.38911064109789
  C   -1.82925636847105      0.20469296032983      2.80768152198399
  C   -3.00600863336886      0.92773566053345      2.63903809501981
  H   -3.88233837125325      2.74878925721837      1.90720559211967
  H   -3.95068028655777      0.50861127931523      2.96135958518036
  H   -1.72731173462698      3.69915468836325      1.16057868534404
  H   0.29788272279923      0.17513767173330      2.51865600153703
  H   -1.85615138530951     -0.77840203991610      3.26037162655471
  C   0.75608120952540      2.59234813730916      1.38630127089536
  N   1.36336524646319      3.41314055352032      2.49167137638560
  H   0.62103323824175      3.26341342004740      0.53843411534640
  H   1.28324114079577      2.01857622217089      1.19632180682952
  H   0.71036687039041      4.14640858530193      2.75828529651425
  H   1.46394955734532      2.82485893661294      3.31731606576160
  Cu  3.08641351645380      4.23176348505258      2.10472450845880
