18
Coordinates from ORCA-job orca
  C   -2.95668551481990      1.79852840252210      1.58292526597529
  C   -1.85584999945974      2.62753176880165      1.45726816314510
  C   -0.68943574459594      2.36898576361787      2.19523335149557
  C   -0.64291448785510      1.25906951292946      3.05452494667892
  C   -1.74772737670133      0.43705380620661      3.17560626071468
  C   -2.90391660265838      0.70317881560037      2.44079021196370
  H   -3.85449301955837      2.00274687289342      1.01533697363610
  H   -3.76353940587685      0.05305837955466      2.53911742316416
  H   -1.88500965059109      3.47940202344439      0.78980833367061
  H   0.24721478074957      1.03009818752822      3.62596201876952
  H   -1.71339974159079     -0.41527916233106      3.84072550493872
  C   0.41026240883686      3.28689933954428      2.02782098145992
  N   1.54701753241686      3.28160446857929      2.78229735795674
  H   0.22101149026578      4.20902022912140      1.49122283399328
  H   1.39646816513167      2.22227087168237     -0.46213651260041
  H   2.05005381607642      4.15420643821236      2.89996107466267
  H   1.65088979626890      2.62480775369818      3.54693651599705
  Cu  1.91251355396147      2.51127652839423      0.90963929437813
