18
Coordinates from ORCA-job orca
  C   -2.96912859966112      1.85137658986757      1.64431142083238
  C   -1.83493081641243      2.61632269092263      1.41005334658520
  C   -0.62652276712783      2.29015625756661      2.03013728025571
  C   -0.56376954719195      1.17842852869394      2.87496175518405
  C   -1.69902318264776      0.41557107036978      3.10586358573856
  C   -2.90377785407086      0.75062160587298      2.49272097417509
  H   -3.90348662247816      2.11493669850960      1.16627640991868
  H   -3.78728705429934      0.15226739157396      2.67360296059502
  H   -1.88333962939700      3.47277316585220      0.74874608603220
  H   0.36964922485624      0.88914822178520      3.34270030164820
  H   -1.64372547195415     -0.44424289816627      3.76058025306464
  C   0.53916828758999      3.15797362431197      1.78238748858427
  N   1.49728326375101      3.32788252135444      2.79731039945516
  H   0.32867921799475      4.06436610275753      1.23274886938402
  H   1.03472237734572      2.40798647324217      0.17462218999842
  H   1.85461633899040      4.26356952498763      2.93245567618823
  H   1.37368887207274      2.80405769326574      3.65241175771745
  Cu  2.23964396264002      2.32126473723154      1.09114924464198
