18
Coordinates from ORCA-job orca
  C   -2.96932584926167      2.18749069702727      2.04733494000306
  C   -1.75664963620531      2.72268144346751      1.62859205310080
  C   -0.57074129414806      2.00800888559498      1.79865528629838
  C   -0.61793512904453      0.74471315875306      2.39006196098377
  C   -1.82974170445862      0.20641271443565      2.80901736132935
  C   -3.00707253446213      0.92838084672486      2.63955840709594
  H   -3.88464246959772      2.74807977494711      1.90589893892788
  H   -3.95146681971115      0.50878099972295      2.96207592163442
  H   -1.73017763906855      3.69956242668856      1.15922967481544
  H   0.29741537994312      0.17803435943620      2.51978579886278
  H   -1.85595490504938     -0.77634327467260      3.26248479850460
  C   0.75331870112563      2.59679018971516      1.38630786509107
  N   1.36261702198734      3.41310072861210      2.49364049729164
  H   0.61774451192022      3.27031996793204      0.54031624011745
  H   1.30663712567979      1.99574885485628      1.18246471314173
  H   0.70854848695703      4.14346167744782      2.76610054142879
  H   1.46739378407417      2.82115178962896      3.31609160767913
  Cu  3.08249296932028      4.23808475968071      2.10542339369239
