18
Coordinates from ORCA-job orca
  C   -3.06559864854756      2.08853477807642      1.89017705006614
  C   -1.87922704795746      2.70449930306567      1.50395690641119
  C   -0.64727049467838      2.13897286202719      1.83448424981456
  C   -0.62139219270505      0.94144464974895      2.55484583564054
  C   -1.80386400678114      0.32944605162509      2.94530014822742
  C   -3.03004839231062      0.90222157242119      2.61339464000171
  H   -4.01509791094955      2.53646353822421      1.62630593391761
  H   -3.95194579247538      0.42119623706777      2.91414498894534
  H   -1.90864133128209      3.63126876931942      0.94344476857671
  H   0.32846215819067      0.47795188338153      2.79626854200888
  H   -1.77197304881653     -0.59971462620484      3.49988489834660
  C   0.61016357185319      2.83281795323754      1.44086807534708
  N   1.47311369981643      3.24696380162767      2.56589613275354
  H   0.44233690446008      3.67491945632569      0.77932033398303
  H   1.46846562840497      1.89128663097538      0.60820946845088
  H   0.94721444425613      3.89279949245303      3.15620409563858
  H   1.67465300364057      2.44230022225021      3.15544864700386
  Cu  3.17310945588211      4.08108742437671      2.08488528486519
