18
Coordinates from ORCA-job orca
  C   -2.97637754343315      1.80734811715067      1.59995504205360
  C   -1.88633811822673      2.65177845161017      1.48919556867927
  C   -0.71400636331784      2.39064287001207      2.22021391910645
  C   -0.65342914074933      1.26412037701643      3.06010828293478
  C   -1.74735981917041      0.42818056549454      3.16547786716148
  C   -2.90768653836309      0.69596434931914      2.43572384084079
  H   -3.87779591387506      2.01099632490469      1.03813024850615
  H   -3.75892999047522      0.03317756474558      2.52179125049635
  H   -1.92631946778485      3.51693758855780      0.83977734278530
  H   0.24012486213902      1.03599647797809      3.62624954550946
  H   -1.70338865805601     -0.43694120196173      3.81314829126888
  C   0.37136731673641      3.31633158413889      2.06162682833925
  N   1.53405942872241      3.29064549286778      2.76220977537074
  H   0.18653204702526      4.23221273364772      1.51260048125651
  H   1.61258373973093      2.10907908879806     -0.51215001317638
  H   2.05740380112767      4.15455957006638      2.85990454859864
  H   1.66781651435445      2.62490567368915      3.51548739912975
  Cu  1.90420384361555      2.50852437196445      0.90358978113886
