18
Coordinates from ORCA-job orca
  C   -2.98166332888276      1.86971001216974      1.67207641484807
  C   -1.84607613240951      2.62838713182946      1.42010768858946
  C   -0.62680871071659      2.28317472943924      2.00626703326642
  C   -0.55417950154417      1.15993137871436      2.83478667633309
  C   -1.68983197459804      0.40370983139890      3.08333396496596
  C   -2.90617618984465      0.75765955427183      2.50405576686513
  H   -3.92486920431834      2.14792473464884      1.22039948193996
  H   -3.79044672928575      0.16469841363765      2.69841954594550
  H   -1.90331466490997      3.49491600856655      0.77280386426530
  H   0.38964353627260      0.85856607380675      3.27367469187842
  H   -1.62623153068980     -0.46574768309745      3.72447753689599
  C   0.54557249594711      3.14175606364220      1.74584209229695
  N   1.48195039129090      3.34218083416361      2.78714359443105
  H   0.33638726037016      4.03955587262840      1.18134078278544
  H   1.08339180518884      2.37059601302429      0.25563855781700
  H   1.80352011222393      4.29173934202235      2.91592661996119
  H   1.30877398741063      2.85278603380205      3.65431937783382
  Cu  2.32281837849569      2.29291565533035      1.16242630908044
