18
Coordinates from ORCA-job orca
  C   -3.04888323429540      2.11894900974898      1.93432373023719
  C   -1.85709672570209      2.71405964865566      1.53203021381521
  C   -0.63261858611150      2.10887847710593      1.81608069732916
  C   -0.61933217315598      0.89350662135646      2.50548859697731
  C   -1.80708374531447      0.30146415478125      2.91175372912575
  C   -3.02560690486396      0.91398538028577      2.62686911872795
  H   -3.99311837052876      2.59625063698495      1.70525227882388
  H   -3.95187998372990      0.44883544127084      2.93902218012411
  H   -1.87706893817309      3.65407817947354      0.99340238334137
  H   0.32570614685076      0.40369867502988      2.71146233727612
  H   -1.78521300919105     -0.64227695066471      3.44169209518829
  C   0.63749385696310      2.78396946586116      1.41813926695737
  N   1.43781488236037      3.29275884240969      2.55653011048957
  H   0.48227228808311      3.58404237675509      0.70241095449786
  H   1.50399007114364      1.83168483458989      0.72547607660408
  H   0.86840120539542      3.96010172085154      3.07784793811673
  H   1.62526150418034      2.53055863986636      3.20477406855031
  Cu  3.13942171608986      4.13991484563653      2.11048422381659
