18
Coordinates from ORCA-job orca
  C   -2.94512525316092      1.79867929785165      1.57756430066805
  C   -1.83367497568514      2.61102200152324      1.43118492930482
  C   -0.66603398695099      2.34762190692441      2.16160466577362
  C   -0.62596395275923      1.24844319345949      3.03150196540320
  C   -1.74082122860125      0.44075697240036      3.17324742179069
  C   -2.90023994131542      0.71275362282970      2.44780215384454
  H   -3.84514175545214      2.00915018083810      1.01556474484793
  H   -3.76755708792589      0.07550944677827      2.56150930888271
  H   -1.85807846583289      3.45424645452619      0.75246394865690
  H   0.26777046095457      1.01201582882352      3.59456622011924
  H   -1.70935012833606     -0.40472991626280      3.84733695966539
  C   0.44953680923379      3.25571171810879      1.98035736037264
  N   1.54948683522413      3.28207963253195      2.80015994668039
  H   0.25767648064913      4.17759195295013      1.44534940122950
  H   1.20373908131720      2.31872192193930     -0.34947376856512
  H   2.03183590256955      4.16398950762944      2.92721290732798
  H   1.61259444362325      2.64687799911469      3.58603572621868
  Cu  1.94180676244841      2.48401827803322      0.92905180777849
