18
Coordinates from ORCA-job orca
  C   -2.94635816575448      1.80976201839019      1.58817290292938
  C   -1.82845087374167      2.61098775760152      1.42437435221755
  C   -0.65303603952768      2.33515935607369      2.13462042998505
  C   -0.60927069481406      1.23349273042533      2.99910765128267
  C   -1.72964961912369      0.43499178350074      3.15734587897789
  C   -2.89860506650596      0.72054341894051      2.45389205597405
  H   -3.85348152570449      2.03176125984904      1.04209095506939
  H   -3.77004773143096      0.09124869026516      2.57962249627575
  H   -1.85623869765808      3.45585577059529      0.74768129181720
  H   0.29379040746811      0.98309838152596      3.54132779416213
  H   -1.69329513423493     -0.41456761114363      3.82615938848725
  C   0.47384802085804      3.23568533600448      1.94011157312005
  N   1.53715119511540      3.29860709789989      2.81200557032377
  H   0.28456647290269      4.14843133828681      1.39002622216342
  H   1.11927971404708      2.34203933994298     -0.23892000938137
  H   2.00758456931051      4.18740502375923      2.93012014129080
  H   1.56371206593383      2.69241305226002      3.62168097852430
  Cu  1.98096110286046      2.43754525582238      0.96362032678027
