18
Coordinates from ORCA-job orca
  C   -2.96835675662552      1.80339438884155      1.59250875607753
  C   -1.87441766256368      2.64240049284039      1.47695720708524
  C   -0.70485253995909      2.38272346233089      2.21176601016091
  C   -0.65010541258426      1.26269323152406      3.05953948657940
  C   -1.74805852327921      0.43178595282553      3.17012181025267
  C   -2.90617390681451      0.69834176511613      2.43714581612542
  H   -3.86791912685370      2.00678852138618      1.02754977126195
  H   -3.76051774933463      0.04012069433919      2.52735781879609
  H   -1.90994675574540      3.50244318954713      0.82047532215569
  H   0.24153165295921      1.03483654608814      3.62888337717520
  H   -1.70825086049139     -0.42820661038235      3.82490575156038
  C   0.38556374634964      3.30561583964001      2.05019013848306
  N   1.54030159180658      3.28650699921202      2.76920304759887
  H   0.19889955634901      4.22434379346502      1.50665862536546
  H   1.53042172484989      2.15123060829399     -0.49719655602490
  H   2.05596739983813      4.15374822256725      2.87535215012382
  H   1.66434606857433      2.62308094779025      3.52578494020764
  Cu  1.90402755352461      2.51261195457446      0.90583652701541
