18
Coordinates from ORCA-job orca
  C   -2.95671720287618      1.83383816668805      1.61901811773383
  C   -1.82594831106094      2.60813843733563      1.40465263707804
  C   -0.62902866983388      2.30159618100099      2.05784913992879
  C   -0.57475514373400      1.19903836635649      2.91580868678812
  C   -1.70713703326635      0.42622684552785      3.12615558820455
  C   -2.89968372125622      0.74177018032407      2.47984555079320
  H   -3.88189423956363      2.08182094373730      1.11555893142864
  H   -3.78066189245693      0.13511341779380      2.64471498030012
  H   -1.86628597106678      3.45594268860513      0.73181500660286
  H   0.34856281079314      0.92422467192160      3.41123604821284
  H   -1.65911035102058     -0.42612476113641      3.79101922736974
  C   0.52858372576533      3.17876506338588      1.82540977778030
  N   1.51048216658391      3.31478582755873      2.80849051706314
  H   0.32408018701734      4.09023968451549      1.28205763214542
  H   0.99937273545120      2.43005172698354      0.07405888638402
  H   1.91294477462389      4.23240083867329      2.94168627517863
  H   1.43304163716183      2.76095018090574      3.64985848128859
  Cu  2.14661449873906      2.34568153982216      1.03380451571850
