18
Coordinates from ORCA-job orca
  C   -2.99218261512244      2.18044821062262      2.03482773232029
  C   -1.78437264557782      2.72904986082632      1.61793384889718
  C   -0.58905206601783      2.03287697112876      1.80200570153369
  C   -0.62240030410807      0.77501395748687      2.40610571198947
  C   -1.82826340686126      0.22509878148398      2.82488760505326
  C   -3.01530573941408      0.92813425137289      2.64075562022611
  H   -3.91436621633412      2.72644141988471      1.88157649870841
  H   -3.95539136256217      0.49801608287919      2.96195913373128
  H   -1.76906725979773      3.70206301306751      1.14038153264811
  H   0.30027254070693      0.22214258610130      2.54110179313414
  H   -1.84313360697357     -0.75355857429420      3.28760868900190
  C   0.71708645219734      2.65155685626905      1.39464479764809
  N   1.36293595673009      3.40694294509124      2.51264999764285
  H   0.58714949790191      3.34056837845510      0.56304692564782
  H   1.48331647353136      1.81937370188120      1.05188139296404
  H   0.71858711295991      4.12643128199016      2.83800487418998
  H   1.49121687160645      2.77937563886286      3.30433292729483
  Cu  3.07543031713555      4.24448463688917      2.10933521736729
