18
Coordinates from ORCA-job orca
  C   -2.96455251925213      2.18714917820355      2.04889863354447
  C   -1.75129587836534      2.72104296158035      1.63051379444114
  C   -0.56688991021742      2.00387198729420      1.79878952710584
  C   -0.61557313880491      0.73947709903326      2.38764318356264
  C   -1.82828505158885      0.20210194536279      2.80557244796660
  C   -3.00426163834752      0.92661670517985      2.63821160055558
  H   -3.87896489124860      2.74966208455016      1.90934603379888
  H   -3.94928606866028      0.50807369044027      2.96023294719681
  H   -1.72323134317752      3.69869896189747      1.16284501736056
  H   0.29887028822328      0.17113706086305      2.51686303208429
  H   -1.85608219473365     -0.78152978448587      3.25702561606472
  C   0.75974164807014      2.58621665185145      1.38673657079916
  N   1.36418973840002      3.41328683541297      2.48862987833310
  H   0.62646630930933      3.25250202351180      0.53546080175669
  H   1.24757621834198      2.05342546284731      1.21728162135320
  H   0.71349630421934      4.15166748526720      2.74586369939627
  H   1.45753892949299      2.83079651865345      3.31927337253340
  Cu  3.09300319833961      4.22026313253533      2.10385222214526
