18
Coordinates from ORCA-job orca
  C   -2.97265885087523      1.85675564537407      1.65224784425838
  C   -1.83796583905492      2.61988556278122      1.41316150056710
  C   -0.62639520591924      2.28814571603235      2.02364918884270
  C   -0.56083776103729      1.17290971657910      2.86359844932336
  C   -1.69629874152355      0.41196272326594      3.09926283556836
  C   -2.90444566091865      0.75261447223464      2.49578610623364
  H   -3.90958887206066      2.12468878139197      1.18172176752474
  H   -3.78823271190657      0.15580750466053      2.68036417846706
  H   -1.88886662190342      3.47941229336074      0.75605172933913
  H   0.37563413291749      0.87991146948934      3.32300000232636
  H   -1.63868094822513     -0.45078421379899      3.74992438084026
  C   0.54099138684853      3.15376661212146      1.77259348134993
  N   1.49198498338599      3.33294438943608      2.79511092528024
  H   0.33174242260153      4.05724320277785      1.21763603631389
  H   1.04875455247515      2.39458069848072      0.19604747177335
  H   1.84034435554985      4.27232284911790      2.92813954067389
  H   1.35531869769530      2.81867169566164      3.65409928037197
  Cu  2.26166068195110      2.31362088103265      1.11064528094486
