18
Coordinates from ORCA-job orca
  C   -2.95468732304657      1.79810239674754      1.58175976461175
  C   -1.85193029219204      2.62415457493467      1.45240793815844
  C   -0.68549622829035      2.36512884567436      2.18955877755113
  C   -0.64033040438675      1.25734664074801      3.05113373432658
  C   -1.74696887113088      0.43792332263678      3.17590277134835
  C   -2.90357069865058      0.70481394828024      2.44234804549255
  H   -3.85276852456093      2.00319139187767      1.01488340655532
  H   -3.76465069727013      0.05707393653636      2.54357125266286
  H   -1.88008857353618      3.47431988227768      0.78270871885881
  H   0.25023144673078      1.02738453121153      3.62155449358718
  H   -1.71339634806938     -0.41288256450476      3.84303683617659
  C   0.41660839560198      3.28168981005682      2.02032547556600
  N   1.54767085208740      3.28102000215372      2.78552049464892
  H   0.22704529148569      4.20406330583377      1.48439562636025
  H   1.36578812255217      2.24006320343375     -0.44767689020904
  H   2.04730242104653      4.15512102172451      2.90543104821504
  H   1.64505276149344      2.62722763796511      3.55339361302940
  Cu  1.91664867013585      2.50871811241201      0.91278489305963
