18
Coordinates from ORCA-job orca
  C   -2.94822231338324      1.79776011183641      1.57854976469750
  C   -1.83964234825218      2.61467719953472      1.43772547092311
  C   -0.67268825867873      2.35338853978644      2.17110727916161
  C   -0.63120532236319      1.25183565482315      3.03894247114839
  C   -1.74333473463927      0.44024615531322      3.17513769138438
  C   -2.90157800470265      0.71000229190362      2.44639015146257
  H   -3.84744775503385      2.00604736270613      1.01454150070144
  H   -3.76689424272386      0.06935845744951      2.55619548438170
  H   -1.86510496270815      3.45991675814504      0.76161279056509
  H   0.26117416110952      1.01824670415757      3.60523099097696
  H   -1.71147399782623     -0.40647487399506      3.84761501970421
  C   0.43798177248431      3.26483800860096      1.99471681566444
  N   1.54893839253403      3.28054478380619      2.79553611739825
  H   0.24743535549108      4.18744945985298      1.46011733420150
  H   1.26089313110266      2.29447435143246     -0.38898095394188
  H   2.03779542186575      4.15941628829198      2.92087653043690
  H   1.62393986230794      2.63802550375782      3.57471441864877
  Cu  1.93189384341614      2.49470724259656      0.92301112248473
