18
Coordinates from ORCA-job orca
  C   -2.94616652341922      1.81627218031783      1.59532236955311
  C   -1.82277660145365      2.60694589793286      1.41269984881743
  C   -0.64073139965104      2.32208500741265      2.10542755900670
  C   -0.59467300412707      1.22253648896711      2.97049327778277
  C   -1.72004924408310      0.43349258372984      3.14763899219997
  C   -2.89667912559034      0.72819046368823      2.46219598146673
  H   -3.85920876235473      2.04630972325883      1.06238859348714
  H   -3.77212582809441      0.10745746617355      2.60200652299020
  H   -1.85361957254001      3.45035519985806      0.73414954958496
  H   0.31543604261868      0.96432120340193      3.49756252402741
  H   -1.68033205134224     -0.41556762810057      3.81702127449005
  C   0.49810210129288      3.21446846040825      1.89858318000054
  N   1.52628824285469      3.30425695896356      2.81745438554556
  H   0.30790589597581      4.12423195031288      1.34577061239043
  H   1.03634504671227      2.39914073631758     -0.11936108837735
  H   1.98298906928031      4.19910918192705      2.93701629943066
  H   1.51371133111677      2.71846916045058      3.64139717541482
  Cu  2.02804438280458      2.39238496497927      0.98527294218835
