18
Coordinates from ORCA-job orca
  C   -3.04110589348048      2.13662987726336      1.96427489413283
  C   -1.84755224387065      2.72274796694462      1.55491121817765
  C   -0.62754873656798      2.09520177741724      1.81106598150668
  C   -0.62062290935205      0.86646675272653      2.47585062930263
  C   -1.81065056042182      0.28255507040985      2.88706311716592
  C   -3.02415654945022      0.91813960547730      2.63320343366256
  H   -3.98199429503835      2.63073979004929      1.75837242576759
  H   -3.95222406116838      0.45981230902137      2.95005893133658
  H   -1.86182461921223      3.67271507979201      1.03388225906274
  H   0.32160394603009      0.36200339499581      2.65666074685656
  H   -1.79460365000904     -0.67246298787096      3.39656069415315
  C   0.64095222957985      2.77266820081789      1.42492749503486
  N   1.40910952847466      3.32827654152155      2.55872593410189
  H   0.50896249742406      3.53423171329417      0.66479388846574
  H   1.58555289279055      1.75098504828884      0.76035462508366
  H   0.82622039814913      4.01947109153165      3.03280062384872
  H   1.57567869229774      2.59570252836706      3.24579270813662
  Cu  3.11666333382550      4.15857623995130      2.10374039420253
