18
Coordinates from ORCA-job orca
  C   -2.94654761890826      1.81449843818650      1.59367736070665
  C   -1.82448965104523      2.60773849641392      1.41574744637628
  C   -0.64426674635980      2.32543906359057      2.11327732210860
  C   -0.59865267596963      1.22535462959184      2.97809294379904
  C   -1.72280384985955      0.43389265586058      3.15044176732420
  C   -2.89754269386943      0.72622400877120      2.46046525661246
  H   -3.85808283933349      2.04246675650542      1.05734999305803
  H   -3.77199912990616      0.10334852035756      2.59682376504170
  H   -1.85445258370296      3.45144482180336      0.73757457892916
  H   0.30964553440387      0.96874284712732      3.50890271221585
  H   -1.68382155517323     -0.41531550313767      3.81964551535120
  C   0.49142227705489      3.22013554893578      1.90996210373405
  N   1.52893507606638      3.30283398126804      2.81682686300908
  H   0.30154948601823      4.13095272108237      1.35810350071620
  H   1.06257226707037      2.38358475483976     -0.15720368557126
  H   1.98993681572692      4.19585257281275      2.93557858612167
  H   1.52707520866485      2.71168496093925      3.63730798895427
  Cu  2.01398267912238      2.40558072505099      0.98046598151231
