18
Coordinates from ORCA-job orca
  C   -2.99660636778747      1.88626398731798      1.69992550623533
  C   -1.86090985177269      2.63954249656156      1.42911625546154
  C   -0.63094894153944      2.27736718035187      1.98055827629415
  C   -0.54820694053844      1.14436329222401      2.79450477933570
  C   -1.68327594141610      0.39419997596191      3.06279087484445
  C   -2.91043494002446      0.76438100702594      2.51705416287103
  H   -3.94818050729249      2.17704566612302      1.27440030041420
  H   -3.79460572882936      0.17623682557789      2.72604542234973
  H   -1.92748211988542      3.51480882950307      0.79460542953437
  H   0.40506015160715      0.83316246407488      3.20554854095165
  H   -1.61114326587835     -0.48312270713347      3.69230261487497
  C   0.54904423341319      3.12356036973828      1.70303264522942
  N   1.47735070108696      3.34544019554995      2.76640110193912
  H   0.33547803012450      4.01941947230415      1.13601900247378
  H   1.13472970034066      2.35152181321921      0.35278342079753
  H   1.74536416967026      4.31186371030573      2.89583357629290
  H   1.24737375885300      2.89010067722728      3.63964681844668
  Cu  2.43985385986880      2.26830474406579      1.24247127165252
