18
Coordinates from ORCA-job orca
  C   -2.94408184806566      1.79821891002872      1.57637227274633
  C   -1.83245794981592      2.61029467601075      1.42970772069591
  C   -0.66489635343801      2.34704519794794      2.16020196893669
  C   -0.62535906376005      1.24866785578878      3.03102187746777
  C   -1.74039344723426      0.44116058385473      3.17307123509902
  C   -2.89958078257960      0.71277897223494      2.44722862329759
  H   -3.84396646016511      2.00852548486066      1.01408521295031
  H   -3.76700511003564      0.07571303685274      2.56113091621766
  H   -1.85657273929257      3.45305151661587      0.75038763765846
  H   0.26824395590834      1.01260381377740      3.59445089437046
  H   -1.70920057544186     -0.40387567357403      3.84774632405969
  C   0.45134355497282      3.25460119429306      1.97819961687251
  N   1.55062472269835      3.28143912056063      2.80006560950312
  H   0.26053643125695      4.17648267268516      1.44296318148364
  H   1.18902839815282      2.32473741820559     -0.33730862966676
  H   2.03296079348407      4.16331544716851      2.92688606681336
  H   1.61266345357815      2.64707279218802      3.58661311476405
  Cu  1.94057301977725      2.48262698050018      0.93021635672984
