18
Coordinates from ORCA-job orca
  C   -2.94444614696821      1.80010630521607      1.57838996619720
  C   -1.83156189854439      2.61009289608566      1.42881798078564
  C   -0.66294000116891      2.34483144728659      2.15638756890500
  C   -0.62286194792024      1.24600294094983      3.02621753230012
  C   -1.73901227686390      0.44026572875249      3.17105544101936
  C   -2.89972769228360      0.71426821991215      2.44872977406304
  H   -3.84540273664477      2.01236433639997      1.01853715589755
  H   -3.76798971489823      0.07871039889919      2.56462118684427
  H   -1.85601016930744      3.45296122324854      0.74962423201309
  H   0.27222532949762      1.00733624322195      3.58624744895535
  H   -1.70712172862663     -0.40536300172280      3.84496954618396
  C   0.45512925470764      3.25123457654999      1.97241924240135
  N   1.54837971512465      3.28431848219357      2.80264552053895
  H   0.26320422403413      4.17194679726364      1.43566286083616
  H   1.17948212908314      2.32719650572875     -0.32718739814380
  H   2.02769028385261      4.16780116092183      2.92914243185369
  H   1.60478377427818      2.65398895448791      3.59277118142255
  Cu  1.94863960264843      2.47639678460430      0.93398832792614
