18
Coordinates from ORCA-job orca
  C   -2.97032586196050      2.18748078331223      2.04701331017140
  C   -1.75780029538527      2.72304274605600      1.62824526085232
  C   -0.57154821725002      2.00895016149953      1.79868492309819
  C   -0.61834348893675      0.74586158468608      2.39057387028098
  C   -1.82993957175456      0.20726999028259      2.80967660328872
  C   -3.00759317610788      0.92864073200454      2.63978144688376
  H   -3.88585989580590      2.74762086841946      1.90520093468845
  H   -3.95183693243800      0.50874846374032      2.96235909134927
  H   -1.73170535973646      3.69979059564424      1.15859070929316
  H   0.29724077361404      0.17960453742735      2.52038825836712
  H   -1.85577423755921     -0.77532497356204      3.26351532850838
  C   0.75180949577448      2.59915664167114      1.38642380211074
  N   1.36226054139522      3.41310060943481      2.49461442610865
  H   0.61613079966532      3.27373986588095      0.54127069723623
  H   1.31816033524322      1.98447696583724      1.17556929045598
  H   0.70785211060892      4.14219852335157      2.76990927499667
  H   1.46894994260811      2.81935936703316      3.31550260402068
  Cu  3.08078303802571      4.24074253727943      2.10572016828794
