18
Coordinates from ORCA-job orca
  C   -2.97436525538388      2.18731623602647      2.04601245761806
  C   -1.76253464326856      2.72470844188013      1.62733587434453
  C   -0.57488036245635      2.01301421831364      1.79911196937810
  C   -0.61984772403028      0.75055685048999      2.39250797537091
  C   -1.83052983178854      0.21045746104815      2.81195404211432
  C   -3.00955912502019      0.92934413031044      2.64051107850411
  H   -3.89084473904135      2.74556680588463      1.90286549519334
  H   -3.95316661942953      0.50803206007682      2.96309203107579
  H   -1.73808761117980      3.70106860022168      1.15680856381277
  H   0.29675837922205      0.18609857844594      2.52243426577688
  H   -1.85473495817606     -0.77167542171236      3.26687898536016
  C   0.74533585052941      2.60900720099310      1.38755279654973
  N   1.36064989987191      3.41364951061061      2.49826827752748
  H   0.61016117240602      3.28645548243346      0.54489071224070
  H   1.36362342596443      1.93954328560095      1.14901025969083
  H   0.70579381353224      4.13900725927102      2.78337775268211
  H   1.47340666680957      2.81359747149773      3.31363775317409
  Cu  3.07528166143937      4.24871182860624      2.10678970958475
