18
Coordinates from ORCA-job orca
  C   -1.64307967355819     -0.84781627115145     -1.44123452289336
  C   -0.63862927498547      0.10192888620902     -1.31485565593628
  C   0.10651068040287      0.18490031095806     -0.13650668753740
  C   -0.15807953276177     -0.70295411124602      0.90914815668736
  C   -1.16216771681670     -1.65149184251574      0.77968473168872
  C   -1.90680654385845     -1.72589515230342     -0.39459240397817
  H   -2.22020647427010     -0.90172627761319     -2.35502444150624
  H   -2.68761912080533     -2.46875900864406     -0.49355441675223
  H   -0.43066785120422      0.78522836107570     -2.12918339387746
  H   0.42665117390075     -0.67493747912208      1.82059155012444
  H   -1.36075128942568     -2.33717988845414      1.59293946465773
  C   1.14525078212470      1.22861335596929     -0.03618923552427
  N   1.43335628663520      1.78810025904847      1.22808466196498
  H   1.13797554693991      1.95742974704347     -0.83420842889475
  H   2.42894493391227      0.36716363532241     -0.91507648659316
  H   1.55240727967664      2.79146574195050      1.25268511994348
  H   0.92679497702818      1.42022931674324      2.02118320764120
  Cu  3.05011581706541      0.68570041672994      0.44610878078542
