18
Coordinates from ORCA-job orca
  C   -2.94653411702538      1.81071726257368      1.58931468296893
  C   -1.82798904116787      2.61075356096763      1.42339697312233
  C   -0.65169221142107      2.33373595023770      2.13139851079326
  C   -0.60757369086295      1.23212521407352      2.99569692367179
  C   -1.72850618517693      0.43461590557212      3.15598827590300
  C   -2.89845497187811      0.72137676155552      2.45484292495609
  H   -3.85444223570116      2.03381739820074      1.04496459498148
  H   -3.77033416770588      0.09299650084808      2.58212092994818
  H   -1.85621116425796      3.45565341599836      0.74674332979681
  H   0.29639333043921      0.98065410325620      3.53596047833758
  H   -1.69164799083498     -0.41510642432522      3.82458242062936
  C   0.47653425990925      3.23338841170451      1.93542892269134
  N   1.53565649344952      3.29958397565275      2.81282042910703
  H   0.28748697913889      4.14564474545308      1.38465644884016
  H   1.11169458092907      2.34655933766358     -0.22702094308146
  H   2.00465229101905      4.18906668885927      2.93072563423012
  H   1.55778452043549      2.69599681196491      3.62445732378433
  Cu  1.98564332071194      2.43288037974313      0.96696213931921
