18
Coordinates from ORCA-job orca
  C   -2.95565258917390      1.79828929575887      1.58229851828145
  C   -1.85385218685558      2.62581770284846      1.45481326641858
  C   -0.68745120283478      2.36705252479035      2.19241790715178
  C   -0.64163637224665      1.25822075791387      3.05287772209173
  C   -1.74736788633450      0.43750277860283      3.17578606820930
  C   -2.90373938819465      0.70399095517451      2.44155515311226
  H   -3.85357732491784      2.00292677796448      1.01502893109523
  H   -3.76409563337093      0.05506215393189      2.54131867390352
  H   -1.88248873582267      3.47681913381962      0.78621040787644
  H   0.24868787321187      1.02876900447107      3.62384607195034
  H   -1.71344154129634     -0.41404943951249      3.84193711478804
  C   0.41344839204580      3.28429027225034      2.02410646214641
  N   1.54739012753482      3.28129471966101      2.78392582680194
  H   0.22403223867343      4.20654598940222      1.48785760564828
  H   1.38091410585375      2.23122469672732     -0.45502783687393
  H   2.04871799820865      4.15464888535724      2.90274043808378
  H   1.64805479840975      2.62597358967191      3.55016434445620
  Cu  1.91451732710980      2.51008020116628      0.91118332485838
