18
Coordinates from ORCA-job orca
  C   -2.96443703737564      1.80151395282095      1.58888801588849
  C   -1.86871090600624      2.63801511626919      1.47119140141253
  C   -0.70046165748541      2.37907023940404      2.20778344293532
  C   -0.64846336558813      1.26215787849787      3.05925249221188
  C   -1.74826303321109      0.43354317566737      3.17218714690680
  C   -2.90529310278975      0.69942964748966      2.43762543848061
  H   -3.86309161420776      2.00472276787202      1.02238091097050
  H   -3.76103369725588      0.04328006391220      2.52964348036454
  H   -1.90213069256161      3.49558800510704      0.81135135167557
  H   0.24225671095461      1.03449154439636      3.63014574526902
  H   -1.71038486542810     -0.42403049482583      3.83027471332328
  C   0.39247847493963      3.30055043961154      2.04466595043693
  N   1.54324887910085      3.28455717178867      2.77248983732817
  H   0.20502705559124      4.22057143682148      1.50365318340177
  H   1.48945690783686      2.17170579763604     -0.48805434727288
  H   2.05541888751067      4.15326238674814      2.88232148843895
  H   1.66252649255026      2.62238803688318      3.53074108223595
  Cu  1.90431656342551      2.51364283389992      0.90649866599240
