18
Coordinates from ORCA-job orca
  C   -2.94671883157636      1.81170843250025      1.59044241313981
  C   -1.82749048880685      2.61047527837924      1.42233175529068
  C   -0.65035966491456      2.33222249910706      2.12815238074032
  C   -0.60585141303321      1.23058935225372      2.99219622918433
  C   -1.72739010469849      0.43420786396579      3.15463090535043
  C   -2.89835730497815      0.72230111499507      2.45584738294311
  H   -3.85539593298407      2.03592443006110      1.04781737523805
  H   -3.77072856329173      0.09493535148851      2.58475311989273
  H   -1.85611846812179      3.45538240301791      0.74568869402084
  H   0.29903463484844      0.97786552786966      3.53039298437669
  H   -1.69005003007965     -0.41567687473349      3.82300455771345
  C   0.47912094572763      3.23099936979100      1.93084510562072
  N   1.53427845643454      3.30074566551966      2.81375951519093
  H   0.28998838889006      4.14260903828878      1.37917989945080
  H   1.10408127390635      2.35134445235575     -0.21513618228231
  H   2.00179550014750      4.19096055200922      2.93138261668251
  H   1.55211504983856      2.69986705065627      3.62741975112792
  Cu  1.99050655269191      2.42799849247404      0.97033149631852
