18
Coordinates from ORCA-job orca
  C   -2.95009242472273      1.79771390126637      1.57946434314623
  C   -1.84298639118441      2.61695335343181      1.44147053883601
  C   -0.67617457412339      2.35634752389761      2.17592053867073
  C   -0.63374921331480      1.25322405011846      3.04225416818830
  C   -1.74448687647756      0.43968619011050      3.17562393882589
  C   -2.90233142695251      0.70868171348255      2.44563201159768
  H   -3.84904573323200      2.00513067265694      1.01473616383049
  H   -3.76661955607859      0.06630569839774      2.55341992936527
  H   -1.86914495151568      3.46343871362523      0.76697584794405
  H   0.25814228125143      1.02064765277042      3.60967258152347
  H   -1.71224053493104     -0.40798069507400      3.84686719017407
  C   0.43201004090768      3.26934460217495      2.00173521073685
  N   1.54858808052199      3.28038480508145      2.79291599284370
  H   0.24174837038607      4.19198603138693      1.46690188656970
  H   1.29124198061541      2.28054404086676     -0.40711466576743
  H   2.04029481378007      4.15798527598587      2.91713524200339
  H   1.62969430198339      2.63463004143384      3.56898001365205
  Cu  1.92761181308676      2.49943642838631      0.92044906785923
