18
Coordinates from ORCA-job orca
  C   -2.94607799063399      1.81307501120115      1.59169451885994
  C   -1.82537544060730      2.60903053984554      1.41855948263583
  C   -0.64665382093052      2.32868627152845      2.12007593542433
  C   -0.60166967675391      1.22793491361242      2.98464627622766
  C   -1.72449806770396      0.43394642748593      3.15200496475700
  C   -2.89737842922457      0.72418505154294      2.45769899662240
  H   -3.85624238556402      2.03923995403054      1.05232692476536
  H   -3.77078905601191      0.09904193857442      2.59033094727587
  H   -1.85465777182048      3.45330003982473      0.74110376767640
  H   0.30501597868584      0.97341237831682      3.51908420083920
  H   -1.68634838713872     -0.41565792296567      3.82072552790653
  C   0.48601226593469      3.22550683008600      1.91994147909849
  N   1.53028944429740      3.30275127405632      2.81659706075642
  H   0.29832222535777      4.13552929944056      1.36581889747720
  H   1.07463422972469      2.37117176585375     -0.17972511036174
  H   1.99713848492878      4.19323622182917      2.93252171052419
  H   1.53787856322611      2.70743284449336      3.63416863081797
  Cu  2.00285983423433      2.41263716124291      0.97546578869625
