18
Coordinates from ORCA-job orca
  C   -2.95666767305762      1.83325824363694      1.61854698906178
  C   -1.82603024217024      2.60777882541771      1.40443791735890
  C   -0.62925346784773      2.30185719363605      2.05827422353040
  C   -0.57514380178547      1.19964698910841      2.91668921812010
  C   -1.70736422204045      0.42650974774513      3.12667792962068
  C   -2.89968816730770      0.74144847111704      2.47969813976731
  H   -3.88172538238482      2.08086154284353      1.11467834013346
  H   -3.78052871192803      0.13452399672655      2.64432131902532
  H   -1.86629598695851      3.45538335217249      0.73134261749567
  H   0.34804525651933      0.92546262940240      3.41270815871823
  H   -1.65946407919350     -0.42561570585340      3.79183806866752
  C   0.52813226458585      3.17939126577207      1.82613996799455
  N   1.51027724165221      3.31406689254709      2.80818572563039
  H   0.32506959627058      4.09093155081659      1.28243381183375
  H   0.99878866888511      2.43314620207302      0.07370029849443
  H   1.91374133379431      4.23121506042145      2.94163826495856
  H   1.43312548122169      2.75976474389601      3.64926598050174
  Cu  2.14744189174534      2.34482899851988      1.03246302908614
