18
Coordinates from ORCA-job orca
  C   -2.99899088452699      2.18202146954859      2.03491279499873
  C   -1.79270203276982      2.72347698696557      1.60413945549772
  C   -0.59583211455490      2.03384375559000      1.80275658150002
  C   -0.62594754420688      0.78989475041631      2.43535234435967
  C   -1.83006565531983      0.24766862183518      2.86809342283552
  C   -3.01886097142343      0.94406868684341      2.66938125096414
  H   -3.92232038283221      2.72275752865465      1.87043424343270
  H   -3.95767190425709      0.51956250878774      3.00154210276480
  H   -1.77974952893676      3.68566742059975      1.10520820529777
  H   0.29794870478724      0.24169341967297      2.58021671860128
  H   -1.84250142443092     -0.72025731787414      3.35290388011600
  C   0.70476612596760      2.65057249406985      1.38268043666725
  N   1.36993752362171      3.40102398261225      2.48810665324322
  H   0.57716894400088      3.33004674104417      0.54399587983786
  H   1.51467649262392      1.75698744280205      1.01093461922447
  H   0.73484781498723      4.12686073948253      2.81890511463585
  H   1.50239393025732      2.77491210681688      3.28017293933546
  Cu  3.08536290701351      4.22365866213053      2.06330335668578
