18
Coordinates from ORCA-job orca
  C   -2.94891453733843      1.79772492980336      1.57871651968325
  C   -1.84114981775133      2.61596360683196      1.43962756216367
  C   -0.67436991461646      2.35503328612253      2.17380577382108
  C   -0.63247847582937      1.25256428871728      3.04083688866189
  C   -1.74381945705903      0.43987669420066      3.17524098261183
  C   -2.90173450542937      0.70925145859325      2.44560911500497
  H   -3.84790975845431      2.00549723087851      1.01417371077953
  H   -3.76649658213037      0.06763843852280      2.55415211806942
  H   -1.86692309331935      3.46191300563762      0.76443821315375
  H   0.25956992985327      1.01952544853693      3.60783634114727
  H   -1.71184752837070     -0.40740649936628      3.84698991760276
  C   0.43474421997501      3.26734913454284      1.99891143503746
  N   1.54869126302867      3.28093338624298      2.79473339105494
  H   0.24464064634299      4.18936546277959      1.46304717963772
  H   1.27410872671630      2.28726826190098     -0.39779308499997
  H   2.03986326814387      4.15881867181333      2.91845596871393
  H   1.62736245570725      2.63705480103801      3.57252020127406
  Cu  1.92912316053147      2.49608839320327      0.92173776658203
