18
Coordinates from ORCA-job orca
  C   -2.94410500765580      1.80115947736090      1.57897081169396
  C   -1.83072089827218      2.61034502816406      1.42823452380605
  C   -0.66147535200132      2.34397446862606      2.15413344742588
  C   -0.62111038705722      1.24478548706353      3.02332774333719
  C   -1.73762501414058      0.43959187458329      3.16913690054435
  C   -2.89909604708214      0.71478449653199      2.44858668163772
  H   -3.84563807329737      2.01444057001909      1.02041957542364
  H   -3.76761265584605      0.07969549411335      2.56513730731866
  H   -1.85544039007612      3.45349296398022      0.74938583717780
  H   0.27482915290288      1.00491975309775      3.58152326783191
  H   -1.70530059244832     -0.40662157748756      3.84230566060893
  C   0.45750688601424      3.24982563425653      1.96924948168165
  N   1.54661358163836      3.28673322798268      2.80477368548079
  H   0.26697670207239      4.16885905264606      1.42932859158110
  H   1.16605933357945      2.32914814589442     -0.31420191915491
  H   2.02671136161222      4.17008715653698      2.92836209537968
  H   1.60006799982778      2.65949606323676      3.59744840059642
  Cu  1.95181940022992      2.46974268339341      0.93691790762869
