18
Coordinates from ORCA-job orca
  C   -2.97465837910783      2.19449590607687      2.05423763445865
  C   -1.76255333052005      2.72007501597533      1.62170445873306
  C   -0.57697670767112      2.00650006028603      1.80021315974093
  C   -0.62435278788245      0.75424915695507      2.41455183453033
  C   -1.83536313373839      0.22592215445968      2.84780834753475
  C   -3.01228533588863      0.94656204846109      2.66941134334707
  H   -3.88949777277486      2.75404180112477      1.90579762859597
  H   -3.95618605540561      0.53442956918534      3.00278947557526
  H   -1.73625978910616      3.68852895716701      1.13518131077283
  H   0.29063214654863      0.18850233557407      2.54980610707322
  H   -1.86149075775230     -0.74843814427534      3.31904694987757
  C   0.74292048920083      2.59220817818905      1.37462973801007
  N   1.36226973359670      3.41617182282810      2.46793700199818
  H   0.60900759208688      3.25208443350525      0.51819804869790
  H   1.38538310152035      1.88815406821900      1.13825376977892
  H   0.70868126986872      4.14731812281307      2.74120832387670
  H   1.47621841058281      2.83113852386650      3.29397062864379
  Cu  3.07697130644311      4.24251598958729      2.05829423875294
