18
Coordinates from ORCA-job orca
  C   -2.94775935234682      1.82002707349499      1.60020253698912
  C   -1.82176781303961      2.60527592149754      1.40766173168096
  C   -0.63591423687014      2.31525522788725      2.09032280281702
  C   -0.58823878736667      1.21656501193096      2.95520224294702
  C   -1.71610014007442      0.43253493715475      3.14258758611995
  C   -2.89694938465440      0.73221285672509      2.46726726655410
  H   -3.86405601869248      2.05460145370385      1.07476748089085
  H   -3.77432189077289      0.11597507786319      2.61475271962598
  H   -1.85469657269223      3.44849297384534      0.72885777062589
  H   0.32549764266368      0.95425520035052      3.47417853244533
  H   -1.67440878085289     -0.41632950365999      3.81216986154013
  C   0.50941752892189      3.20311260858902      1.87608480645983
  N   1.52060819996909      3.30672236729216      2.81702984950874
  H   0.31600133322894      4.11378810998947      1.32665331768944
  H   1.00889088008536      2.42176871316942     -0.05476788183243
  H   1.96559141685973      4.20653101103666      2.94006592888334
  H   1.48957077760722      2.72865365348288      3.64544394862091
  Cu  2.06109519802692      2.37501730564601      0.99455949843293
