18
Coordinates from ORCA-job orca
  C   -3.02675864008415      2.15273818282637      1.98732930378825
  C   -1.82846234625391      2.71519668409400      1.55931126964668
  C   -0.61632811893039      2.06902335372760      1.80362877000710
  C   -0.62207126309496      0.84663074884809      2.47910238707693
  C   -1.81693442401161      0.28561933514158      2.91038933526218
  C   -3.02233120384977      0.93890707363367      2.66560505002224
  H   -3.96186130377969      2.66045695500840      1.78802856866415
  H   -3.95416377014135      0.49869217838970      2.99686903298249
  H   -1.83371577481634      3.66051216115801      1.02941784597432
  H   0.31399110936358      0.32928634993269      2.65639263355102
  H   -1.81032647641505     -0.66456274004896      3.42916761444701
  C   0.66791805149220      2.71215160664344      1.38679245743820
  N   1.40417878602662      3.34494703636814      2.51244392765048
  H   0.52629085051360      3.45031989597271      0.60356146557577
  H   1.52077419874195      1.76401480066910      0.85425420197928
  H   0.80289857663703      4.05152110655710      2.93607253914995
  H   1.56138982481439      2.65099189522769      3.24069457470590
  Cu  3.11797192378840      4.16801337584905      2.07397902207636
