18
Coordinates from ORCA-job orca
  C   -2.96637952568241      1.84682225945883      1.63795871582439
  C   -1.83299760798160      2.61397093248806      1.40810392988157
  C   -0.62710972943718      2.29286960365125      2.03604225804730
  C   -0.56632067291308      1.18378469492849      2.88451004878083
  C   -1.70089071801498      0.41851840970383      3.11089359618426
  C   -2.90288050788441      0.74844516708258      2.48973203952997
  H   -3.89869540365637      2.10650240424241      1.15385662865724
  H   -3.78573610367118      0.14805678102697      2.66703801912596
  H   -1.87970581232439      3.46819354814355      0.74379713843038
  H   0.36480926930386      0.89838208773363      3.35907228543979
  H   -1.64722586085096     -0.43917535573909      3.76850344833100
  C   0.53711882870698      3.16280587821723      1.79110823710419
  N   1.50065814022345      3.32372756541417      2.79904387708842
  H   0.32855248428411      4.07148653665065      1.24463289406397
  H   1.02343419310329      2.41599462372130      0.15623381524793
  H   1.86774314968011      4.25545078623259      2.93548636955808
  H   1.38693872949020      2.79256903875435      3.65091462640001
  Cu  2.22114714762492      2.32605503828807      1.07611207230354
