18
Coordinates from ORCA-job orca
  C   -2.98751732953844      1.87679718661248      1.68372900448737
  C   -1.85180027893323      2.63322154185436      1.42396302690428
  C   -0.62800112655772      2.28075061987894      1.99563103187721
  C   -0.55106758905676      1.15323466942947      2.81782261582315
  C   -1.68645540101459      0.39940660653286      3.07427596329224
  C   -2.90747594355258      0.76034680338030      2.50914141068527
  H   -3.93435218380210      2.16049278530223      1.24316319019929
  H   -3.79169664486264      0.16927933972934      2.70941348133796
  H   -1.91302601297093      3.50363646513911      0.78227156795536
  H   0.39692135700868      0.84770360716195      3.24487991879611
  H   -1.61915342620256     -0.47363951901092      3.71017679941350
  C   0.54757076409119      3.13456594481783      1.72868617848978
  N   1.47800386548529      3.34521876697044      2.78010903945706
  H   0.33824091363512      4.03065328974092      1.16117501458885
  H   1.10420484921341      2.36050072083302      0.29471772999035
  H   1.78074783363540      4.30120863595920      2.90785573414640
  H   1.28142074537044      2.87080708722208      3.65083897537945
  Cu  2.36589560805244      2.28027544844510      1.19518931717507
