18
Coordinates from ORCA-job orca
  C   -2.98025423869294      1.80921120836914      1.60381846661315
  C   -1.89153015921303      2.65539928916040      1.49440541614169
  C   -0.71796647063429      2.39348103196835      2.22358376710416
  C   -0.65489767580874      1.26427958015614      3.06009844324358
  C   -1.74745524765370      0.42668193948489      3.16391614702373
  C   -2.90894837729253      0.69534196330175      2.43607123815028
  H   -3.88257935304479      2.01322790608863      1.04361643789582
  H   -3.75913941774153      0.03104483345213      2.52090025949073
  H   -1.93332115432558      3.52252172011895      0.84773971528899
  H   0.23962999581868      1.03561172202149      3.62445651157295
  H   -1.70171215540028     -0.44050076253774      3.80867881410393
  C   0.36553640695553      3.32023630423428      2.06606385374230
  N   1.53080565684384      3.29240898289751      2.75960963520637
  H   0.18031951996692      4.23530448210855      1.51572383328059
  H   1.65298019867483      2.09145181928339     -0.52328763658321
  H   2.05614664955120      4.15550667014391      2.85495213240192
  H   1.66791193541642      2.62553243019386      3.51145397181454
  Cu  1.90693388658000      2.50771887955424      0.90123899350832
