18
Coordinates from ORCA-job orca
  C   -3.01047225839605      1.88899403943347      1.70862281329019
  C   -1.87606070429028      2.64079227431662      1.42893841979014
  C   -0.64100923173700      2.27647831787530      1.96780637092705
  C   -0.55291230407809      1.14296344784165      2.78037761343742
  C   -1.68742286847869      0.39515982955806      3.05973030925284
  C   -2.91883856609544      0.76690534534960      2.52505156633507
  H   -3.96525899585088      2.18140473353689      1.29139857862556
  H   -3.80217916084237      0.18049695012016      2.74238058453309
  H   -1.94699793321875      3.51711737696551      0.79629394720234
  H   0.40311061681568      0.82974089117926      3.18322535528438
  H   -1.61157957014116     -0.48163766259818      3.68962853229592
  C   0.54147277259294      3.11397239566071      1.67248042439796
  N   1.49627036819832      3.32671715466153      2.73582463896628
  H   0.31624441681695      4.02317588501868      1.13064079612094
  H   1.15763770910476      2.36887667557211      0.42032344286791
  H   1.71189097847120      4.30390174015725      2.88683535154200
  H   1.24410558430644      2.87631466006843      3.60656289142097
  Cu  2.56445914682290      2.28308594528150      1.28691836370844
