18
Coordinates from ORCA-job orca
  C   -2.98444906256170      1.87293311474033      1.67741683468613
  C   -1.84883137981562      2.63061327827912      1.42181604686244
  C   -0.62741858701109      2.28212106466410      2.00125538187280
  C   -0.55270690902509      1.15692952560099      2.82687046734797
  C   -1.68820212798184      0.40175462200501      3.07908907087231
  C   -2.90676607963931      0.75884674025376      2.50636421894368
  H   -3.92937631493223      2.15364707376910      1.23090007749499
  H   -3.79096707980477      0.16668907968006      2.70346818700005
  H   -1.90798484148287      3.49895389260504      0.77712008078270
  H   0.39310158876379      0.85369777280732      3.26025688453386
  H   -1.62282140597589     -0.46935781420273      3.71781895975675
  C   0.54649461352182      3.13846069479665      1.73762629972963
  N   1.48013841246570      3.34348248616605      2.78372788097037
  H   0.33751732152245      4.03565538348875      1.17193249650001
  H   1.09266913882781      2.36617711536896      0.27480865036333
  H   1.79305714473052      4.29602551098236      2.91216350864432
  H   1.29579954405376      2.86128970572482      3.65273363866706
  Cu  2.34320602434497      2.28654075326906      1.17767131497030
