18
Coordinates from ORCA-job orca
  C   -2.96944266230405      2.19575584232729      2.05770399136733
  C   -1.75633916885937      2.71890388754619      1.62536843602588
  C   -0.57291542259456      2.00118835718710      1.80046144889712
  C   -0.62322164389977      0.74715011465628      2.41086080073161
  C   -1.83554203312053      0.22082666746196      2.84340032072345
  C   -3.01028591171677      0.94571941551774      2.66868885328499
  H   -3.88275639591312      2.75857536244675      1.91226458747599
  H   -3.95513042109120      0.53550252074013      3.00176285016345
  H   -1.72761779316208      3.68863706273485      1.14148328243109
  H   0.29010699971026      0.17824476374961      2.54454259110809
  H   -1.86418455685236     -0.75492373231030      3.31161184910865
  C   0.75091653669588      2.57996658096985      1.37437211226554
  N   1.36206229072890      3.41902283126254      2.46298312822212
  H   0.61696525032584      3.23397557126530      0.51302951483420
  H   1.34258807815488      1.93074542051314      1.16933389833290
  H   0.70829127033779      4.15527195463148      2.72029215254078
  H   1.46696960057957      2.84466777547505      3.29776448318167
  Cu  3.08199598298132      4.23522960382319      2.05711569930326
