18
Coordinates from ORCA-job orca
  C   -2.97200579839069      2.19518693887857      2.05594606599030
  C   -1.75937633669371      2.71945546184462      1.62347026457912
  C   -0.57490705827326      2.00375219357019      1.80027276804480
  C   -0.62381958556940      0.75063128911468      2.41269369663022
  C   -1.83550835463984      0.22339780080734      2.84564587743228
  C   -3.01130319372829      0.94622896653465      2.66908540777429
  H   -3.88605330604139      2.75641808083032      1.90899098368318
  H   -3.95569363718017      0.53512986482139      3.00235561035109
  H   -1.73182105009637      3.68852164908796      1.13820879077996
  H   0.29030412149079      0.18325248375812      2.54719585111347
  H   -1.86293888161835     -0.75163243268339      3.31542557841546
  C   0.74702513217864      2.58594608394453      1.37435481433261
  N   1.36217310064358      3.41752048800854      2.46549157341172
  H   0.61285453744445      3.24315122125432      0.51564976624159
  H   1.36421145859693      1.90935540125969      1.15374183097276
  H   0.70824216263851      4.15093292343023      2.73106212769354
  H   1.47196009523737      2.83766772277777      3.29578276549345
  Cu  3.07911659400182      4.23954386275864      2.05766622705828
