18
Coordinates from ORCA-job orca
  C   -2.94997992632252      1.82369891846363      1.60516150765607
  C   -1.82239884944426      2.60545429584166      1.40579535294937
  C   -0.63332898730648      2.31090510146576      2.08010796333315
  C   -0.58390369361778      1.21166008573121      2.94359960992496
  C   -1.71325771575947      0.43105752912208      3.13806486739050
  C   -2.89753435297780      0.73509836892509      2.47101574676420
  H   -3.86891095330547      2.06205692621809      1.08599357908618
  H   -3.77609392941655      0.12184793522263      2.62385658000863
  H   -1.85740819140639      3.44954832207100      0.72812313088582
  H   0.33271095165175      0.94593118620249      3.45588480039913
  H   -1.66978909433943     -0.41846721178636      3.80674297345391
  C   0.51598525563543      3.19561792186495      1.86052989743080
  N   1.51710659448075      3.30889287860377      2.81525907972550
  H   0.31980157522174      4.10659110777713      1.31293458684286
  H   1.00045782994676      2.42887949334594     -0.01353585577601
  H   1.95098221479134      4.21344867067995      2.94146047524046
  H   1.47219219426995      2.73753670329417      3.64746980333227
  Cu  2.08582907789874      2.36470176695588      1.00457590135124
