18
Coordinates from ORCA-job orca
  C   -2.94592826853116      1.81342843995504      1.59210089123790
  C   -1.82469523439145      2.60834834979214      1.41715565351899
  C   -0.64546468157739      2.32737418084548      2.11728291994819
  C   -0.60038885047728      1.22708402964248      2.98220198419755
  C   -1.72372693880221      0.43402615704954      3.15142502197909
  C   -2.89721221229515      0.72489549942506      2.45855460182488
  H   -3.85655573582766      2.04018233062035      1.05374295800770
  H   -3.77101899898432      0.10059902606468      2.59256394596943
  H   -1.85415035883796      3.45226549600545      0.73924964623051
  H   0.30683899802488      0.97197665551214      3.51548368470631
  H   -1.68535086964470     -0.41530307100136      3.82049495803046
  C   0.48844858193388      3.22337995704607      1.91593965980416
  N   1.52944010230662      3.30285164899362      2.81701911330364
  H   0.30051081573699      4.13348470582377      1.36221782325315
  H   1.06602204812402      2.37831321777703     -0.16827604037572
  H   1.99498503621821      4.19386956871486      2.93339280427753
  H   1.53341323445759      2.70910726285480      3.63566130347449
  Cu  2.00729333256733      2.40857654487817      0.97682907061103
