18
Coordinates from ORCA-job orca
  C   -2.94598720813577      1.81617997402582      1.59527064044766
  C   -1.82212818474814      2.60589362100032      1.41111380340842
  C   -0.63982617600398      2.32079151791088      2.10301403328317
  C   -0.59386869270822      1.22204872177447      2.96876678276882
  C   -1.71972843259650      0.43379796083793      3.14752152836228
  C   -2.89669254618437      0.72869520134540      2.46294744222505
  H   -3.85928908066638      2.04655106734483      1.06290444499915
  H   -3.77247805725072      0.10871527193148      2.60396547281103
  H   -1.85295014999332      3.44875473241211      0.73185582439967
  H   0.31649527894138      0.96354375762399      3.49528195231012
  H   -1.67993908500299     -0.41473991673889      3.81757650659449
  C   0.50032893692503      3.21246768588050      1.89504120117701
  N   1.52510876250119      3.30424467492691      2.81787183945872
  H   0.30980856544708      4.12292781836951      1.34365150708150
  H   1.02831305985746      2.40737584818953     -0.10754309278902
  H   1.98133702644480      4.19920363086726      2.93748220922024
  H   1.51066345602014      2.71856726117561      3.64172303584715
  Cu  2.03329252715358      2.38944117112155      0.98459486839370
