18
Coordinates from ORCA-job orca
  C   -2.97892668111403      2.19308299787329      2.05152790940097
  C   -1.76771917968396      2.72106789186079      1.61914078130696
  C   -0.58030249306713      2.01107192497406      1.80043922489276
  C   -0.62501441918460      0.76008856974819      2.41757592994795
  C   -1.83490631037116      0.22972244727171      2.85106042441147
  C   -3.01372521831127      0.94667629840554      2.66971816225829
  H   -3.89511056261058      2.74977701500710      1.90069790679917
  H   -3.95680947116072      0.53266039688677      3.00306706037829
  H   -1.74354416000072      3.68861747781870      1.13076691435219
  H   0.29141600246813      0.19706792354186      2.55397999006479
  H   -1.85885164044643     -0.74365732283654      3.32443102374145
  C   0.73619650081499      2.60240391073626      1.37559904658362
  N   1.36263793942651      3.41427246266463      2.47161465600122
  H   0.60336925103945      3.26563425355780      0.52212658728333
  H   1.41603420928978      1.85704009641612      1.11479745009120
  H   0.71067650700861      4.14310782828761      2.75585514229683
  H   1.48164528911580      2.82172710520802      3.29147761527436
  Cu  3.07539443678794      4.24409872257632      2.05916417491328
