18
Coordinates from ORCA-job orca
  C   -3.06774209680034      2.08762141817927      1.89204917014497
  C   -1.88108082869445      2.69452636934621      1.49262272808994
  C   -0.64934752170760      2.13589933356070      1.83514560293808
  C   -0.62404268138640      0.95410183491896      2.58120438482307
  C   -1.80676638665570      0.35128722027059      2.98483903291773
  C   -3.03276520947560      0.91724083116606      2.64071329975783
  H   -4.01702449006067      2.53040353234140      1.61890517081210
  H   -3.95485349151297      0.44332916755709      2.95195104276207
  H   -1.91005744467940      3.60924367248411      0.91262740300387
  H   0.32515133671566      0.49457789366902      2.83266235090828
  H   -1.77516359032202     -0.56560637549728      3.55950048725811
  C   0.60842665868085      2.81966023768635      1.42498202587651
  N   1.48230514458315      3.24148175196985      2.53866162272513
  H   0.43846045857797      3.65634031906546      0.75707587096547
  H   1.45549191084679      1.86603316157271      0.59458461198597
  H   0.96424252746750      3.89664757173990      3.12558824690635
  H   1.68395242710309      2.44254572102581      3.13587929174873
  Cu  3.18327327732064      4.05912633894220      2.03404765637418
