18
Coordinates from ORCA-job orca
  C   -2.96258292821297      2.19640795920015      2.06198733977337
  C   -1.74830210079637      2.71721393760545      1.63058669840120
  C   -0.56748499313505      1.99463089309294      1.80164038807179
  C   -0.62103838381733      0.73815227771923      2.40655078589626
  C   -1.83497865683645      0.21361938050115      2.83729920954869
  C   -3.00718599266857      0.94344832997096      2.66706498622385
  H   -3.87412185155059      2.76304104383209      1.92028825373502
  H   -3.95317941765686      0.53506512360233      2.99912818020377
  H   -1.71667356590378      3.68879753417393      1.15056627578783
  H   0.29047513874099      0.16572830978837      2.53810151711134
  H   -1.86660547367930     -0.76412275820014      3.30113650843311
  C   0.76040418307984      2.56478222468621      1.37596330605910
  N   1.36246482377642      3.42264433985262      2.45575793374955
  H   0.62966433966014      3.20729260477387      0.50579063580322
  H   1.27441247372279      1.99819888495459      1.21378192920529
  H   0.71187465216666      4.16905622060282      2.68901713541963
  H   1.45157391510603      2.86426160190807      3.30324089072854
  Cu  3.09374383800507      4.21624209193347      2.05513802584651
