18
Coordinates from ORCA-job orca
  C   -2.96197753249124      1.80048043329931      1.58693321807826
  C   -1.86494545930316      2.63513131149699      1.46766896760786
  C   -0.69764043954196      2.37662874567592      2.20546549562102
  C   -0.64738880105942      1.26165946086785      3.05913408642574
  C   -1.74847413647429      0.43462569365904      3.17365999443751
  C   -2.90487156257539      0.70028525307367      2.43828582443391
  H   -3.86006457039917      2.00372319376559      1.01951397019041
  H   -3.76158672508460      0.04558281311882      2.53150207749808
  H   -1.89692935143414      3.49104466124408      0.80558631472523
  H   0.24281238318136      1.03384112461610      3.63081591557501
  H   -1.71179511118436     -0.42146468253802      3.83375943744493
  C   0.39708651159782      3.29725213276725      2.04155386882003
  N   1.54403593565617      3.28392674178508      2.77592252476306
  H   0.20881230050776      4.21793949138116      1.50196648439441
  H   1.46492132221719      2.18421078844713     -0.48714376793347
  H   2.05410210758848      4.15350674456754      2.88777369597697
  H   1.65972277076686      2.62258584029513      3.53532018553723
  Cu  1.90664035803214      2.51350025247714      0.90532170640359
