18
Coordinates from ORCA-job orca
  C   -2.95770419059492      1.79885709917407      1.58353823921389
  C   -1.85788207923812      2.62940436960858      1.45980364638504
  C   -0.69143883273258      2.37102314547574      2.19812080440883
  C   -0.64414516335972      1.25990046580915      3.05612233229520
  C   -1.74797834476759      0.43652356483015      3.17524741292132
  C   -2.90399830759594      0.70235044806516      2.43986433566779
  H   -3.85540679457507      2.00267178971219      1.01565988086188
  H   -3.76285104193974      0.05098120121072      2.53666028656386
  H   -1.88761532130165      3.48223209840150      0.79360858443870
  H   0.24581393966537      1.03136864708724      3.62796905602764
  H   -1.71320645697437     -0.41669326601393      3.83919567228860
  C   0.40695267564179      3.28961207330388      2.03170604405427
  N   1.54652092989690      3.28220887051940      2.78087355030553
  H   0.21796652698404      4.21129815451564      1.49421277282743
  H   1.41167814037000      2.21270677600496     -0.46877504406914
  H   2.05157395292373      4.15394075500454      2.89688755572057
  H   1.65372983738672      2.62417576660013      3.54408729162748
  Cu  1.91045053021124      2.51189804069061      0.90825757846082
