18
Coordinates from ORCA-job orca
  C   -2.94916026251671      1.82240684729030      1.60339467154245
  C   -1.82210429972059      2.60533516403557      1.40634489248773
  C   -0.63415424866390      2.31236808337228      2.08356774138039
  C   -0.58535140352959      1.21336229805562      2.94758882055104
  C   -1.71421237605798      0.43159754167263      3.13964405757092
  C   -2.89730447715138      0.73411839535779      2.46972218403467
  H   -3.86718165531090      2.05944976925430      1.08204458998290
  H   -3.77547189882155      0.11986027206477      2.62073706813350
  H   -1.85637724069646      3.44908030040051      0.72822161113662
  H   0.33027597826407      0.94881992634364      3.46219447457719
  H   -1.67136620909702     -0.41767000993664      3.80867287163296
  C   0.51382657410447      3.19815432155946      1.86583253704576
  N   1.51826794622338      3.30815878483133      2.81597555090380
  H   0.31860877445042      4.10901405990131      1.31759230585366
  H   1.00271431066045      2.42681809059175     -0.02742740724475
  H   1.95611781943648      4.21102476431869      2.94106311430068
  H   1.47813190382835      2.73445503909990      3.64688078951005
  Cu  2.07720076459876      2.36810635178587      1.00099012659947
