18
Coordinates from ORCA-job orca
  C   -2.98892132726586      1.81309296811638      1.61170038561363
  C   -1.90416691938228      2.66463991993966      1.50692381201893
  C   -0.72762892272175      2.40132398981433      2.23198348838958
  C   -0.65854375698076      1.26582194978415      3.06060689996331
  C   -1.74709934895009      0.42331405229081      3.15950901838476
  C   -2.91092263034144      0.69309876968354      2.43511264249732
  H   -3.89317183301976      2.01721697459248      1.05472559511224
  H   -3.75799479292977      0.02432265188654      2.51597074479675
  H   -1.95050568785882      3.53666783115674      0.86724287569086
  H   0.23790829389143      1.03699652188215      3.62175106868335
  H   -1.69709605431750     -0.44877195310672      3.79725007088489
  C   0.35087361848338      3.33076885992843      2.07710358171558
  N   1.52445026358860      3.29562727765523      2.75086340568558
  H   0.16658761179649      4.24349249682250      1.52249563653454
  H   1.74006015508713      2.05224823551852     -0.53380235609028
  H   2.05693845252874      4.15546348310934      2.83830560808900
  H   1.67147479404162      2.62589283313959      3.49867544096438
  Cu  1.91021808435065      2.50324313778628      0.89662208106553
