18
Coordinates from ORCA-job orca
  C   -2.95089798398183      1.79768598686926      1.57973260258492
  C   -1.84462684547590      2.61825609560127      1.44347152621401
  C   -0.67797732934968      2.35803051166698      2.17865670787792
  C   -0.63508668007845      1.25402673058071      3.04415488527653
  C   -1.74503385556764      0.43936047314472      3.17577206932539
  C   -2.90256721615624      0.70791304980879      2.44493162726046
  H   -3.84962303007764      2.00458440708329      1.01447099483458
  H   -3.76626139146522      0.06452131454730      2.55143636424368
  H   -1.87110922398742      3.46542327955645      0.76986381638294
  H   0.25647151694876      1.02198099991573      3.61227969492808
  H   -1.71261463498702     -0.40886693371851      3.84628513465431
  C   0.42884487382173      3.27180791948038      2.00568445391755
  N   1.54839160196996      3.28061873174830      2.79177987565542
  H   0.23880251713127      4.19417800165409      1.47021950845948
  H   1.30545612739192      2.27310138021932     -0.41563377552015
  H   2.04206583548123      4.15736698766989      2.91474797226086
  H   1.63301339654128      2.63329763282285      3.56625301519831
  Cu  1.92521232184101      2.50117343134886      0.91893352644533
