18
Coordinates from ORCA-job orca
  C   -2.95457859430621      1.79810679941260      1.58161950154592
  C   -1.85186864698379      2.62424493480846      1.45243442232859
  C   -0.68549009378998      2.36523145403608      2.18971191571673
  C   -0.64033396134145      1.25738565102516      3.05124389504179
  C   -1.74692059136813      0.43788955929072      3.17582333136558
  C   -2.90346062813548      0.70476769611474      2.44214161609499
  H   -3.85260997610588      2.00315403070901      1.01465190334843
  H   -3.76450714754549      0.05696038822069      2.54322361781018
  H   -1.88001296002151      3.47445088586494      0.78278892834700
  H   0.25018657261672      1.02743764754650      3.62173057480382
  H   -1.71337034358987     -0.41296709653262      3.84289233253235
  C   0.41651324094471      3.28179871583859      2.02059704165145
  N   1.54766140083221      3.28124718442821      2.78574169416178
  H   0.22703589569251      4.20392166648263      1.48420515225746
  H   1.36491231639569      2.23969195273086     -0.44750276769767
  H   2.04762080539041      4.15522204533229      2.90520919824968
  H   1.64526418726814      2.62760092017762      3.55371641592198
  Cu  1.91641852404748      2.50831556451324      0.91281122651961
