18
Coordinates from ORCA-job orca
  C   -2.96128547753809      2.19664111160198      2.06372936449368
  C   -1.74690219418747      2.71737170837530      1.63265324098735
  C   -0.56658197611510      1.99374364942136      1.80218459694942
  C   -0.62050851379510      0.73634409176924      2.40507777692115
  C   -1.83468958870968      0.21173464147857      2.83522643549061
  C   -3.00645002734170      0.94260552175403      2.66663496730897
  H   -3.87252412992467      2.76410724566383      1.92345222865438
  H   -3.95259280314963      0.53428076714797      2.99834338805175
  H   -1.71481295728046      3.68969567831445      1.15415281447679
  H   0.29072084184152      0.16324174864181      2.53571941280505
  H   -1.86679314907043     -0.76676148474099      3.29743682607964
  C   0.76201195188319      2.56190058222971      1.37699580635827
  N   1.36161896478001      3.42479686746764      2.45383228294452
  H   0.63276489491107      3.20031327626818      0.50393792484890
  H   1.26319334658206      2.00873678979900      1.22379324408604
  H   0.71286639964238      4.17505561511138      2.67930095939142
  H   1.44493003203390      2.87142317275050      3.30521167115492
  Cu  3.09749438543888      4.20922901694413      2.05535705899519
