18
Coordinates from ORCA-job orca
  C   -2.95087712794009      1.82505155374932      1.60703648233497
  C   -1.82278015598424      2.60563295136337      1.40532330699942
  C   -0.63254603374522      2.30943774935784      2.07660604972987
  C   -0.58246045369288      1.20989982005084      2.93950177482512
  C   -1.71229895849283      0.43047197780666      3.13641785828195
  C   -2.89779731844831      0.73608896343850      2.47234770690618
  H   -3.87074546693124      2.06477284037227      1.09013683024253
  H   -3.77674094442977      0.12385035312254      2.62704748381593
  H   -1.85856523106856      3.45013119827989      0.72817468650313
  H   0.33516663106174      0.94294632041981      3.44938298427195
  H   -1.66817922388252     -0.41934754545582      3.80469500275431
  C   0.51810406452990      3.19305703901149      1.85512255918464
  N   1.51595491090230      3.30962860101702      2.81440705743650
  H   0.32094834130662      4.10415713510324      1.30819116156268
  H   0.99872548671744      2.43065701282992      0.00050852902198
  H   1.94559641767440      4.21597185780009      2.94177274590233
  H   1.46611046401511      2.74073305449793      3.64796098749544
  Cu  2.09484459840845      2.36131911723414      1.00840679273008
