18
Coordinates from ORCA-job orca
  C   -2.98897867901504      2.18829690984230      2.04411433282329
  C   -1.78011622627288      2.72281270298603      1.61255626751155
  C   -0.58810730812594      2.02233080523798      1.80159543412773
  C   -0.62582033940616      0.77447530879617      2.42569311437556
  C   -1.83291269843088      0.23843114143521      2.85899377168096
  C   -3.01656077570562      0.94570913294052      2.66974980086021
  H   -3.90862804829377      2.73745011271126      1.88695757324051
  H   -3.95759075480205      0.52660290461926      3.00251877973175
  H   -1.76136015628855      3.68799515334447      1.11943836723721
  H   0.29422285301551      0.21843360861301      2.56559463024952
  H   -1.85129224587980     -0.73251631956256      3.33755997635707
  C   0.72040177876579      2.62647216527796      1.37889923264694
  N   1.36532411221334      3.40883328823332      2.47981662958173
  H   0.59045151135296      3.29711905384347      0.53219895918499
  H   1.47258357369323      1.79904448147593      1.06294040876477
  H   0.72056656251447      4.13559686567231      2.78726431345328
  H   1.49213883294347      2.79979118457959      3.28613497697678
  Cu  3.07813800772253      4.23758149995202      2.06101343119434
