18
Coordinates from ORCA-job orca
  C   -3.01785994569399      1.89328409876988      1.71733731435134
  C   -1.88350817118156      2.64285894312503      1.43107765320343
  C   -0.64517056553078      2.27420202399852      1.95961076436077
  C   -0.55449942542972      1.13860623812378      2.76924358776112
  C   -1.68890840352592      0.39334320390686      3.05574791636980
  C   -2.92325086996315      0.76941319691875      2.53085638971737
  H   -3.97494740037864      2.18915549225553      1.30785184828410
  H   -3.80664858630924      0.18516460394260      2.75375091129075
  H   -1.95706611705475      3.52106805271151      0.80134318692323
  H   0.40381537729468      0.82271454566923      3.16454687220406
  H   -1.61093840563465     -0.48473430990152      3.68361969493761
  C   0.53816055336076      3.10778354877020      1.65687444179377
  N   1.49918388120230      3.32264144179477      2.72271155317913
  H   0.31030560892392      4.01874418754905      1.11868873245217
  H   1.17943512577434      2.36483173735997      0.44170627895041
  H   1.68997165883830      4.30412839094805      2.88230544510475
  H   1.23771771192035      2.87365229579084      3.59204370303810
  Cu  2.62666797338807      2.29760230826597      1.32372370607706
