18
Coordinates from ORCA-job orca
  C   -2.99895875417431      2.17676262468636      2.02989045684730
  C   -1.79300153786601      2.73001856949857      1.61332747519119
  C   -0.59460304732890      2.04064549576903      1.80315587746738
  C   -0.62281691462637      0.78497233789118      2.41232483485882
  C   -1.82658875322724      0.23094255225449      2.83088815212376
  C   -3.01694825928182      0.92719756702136      2.64119617521135
  H   -3.92351620737293      2.71745092991351      1.87228208256668
  H   -3.95551160048037      0.49353703415399      2.96206353645007
  H   -1.78166461548633      3.70128037434425      1.13223105444899
  H   0.30233519479232      0.23702740056373      2.54983869980338
  H   -1.83755606073461     -0.74602950745672      3.29723289653644
  C   0.70552884190204      2.66856333642230      1.39803301767793
  N   1.36493480120468      3.40355946732576      2.51756079449608
  H   0.57801821342611      3.36148092932896      0.57041048702449
  H   1.51973111030070      1.78336322087017      1.01575115803270
  H   0.72705773590554      4.12300733492897      2.85680215574364
  H   1.49617958356825      2.76586978527687      3.30051728651814
  Cu  3.07984026947965      4.23481054720603      2.10953385900041
