18
Coordinates from ORCA-job orca
  C   -2.97435137900626      2.18737783896096      2.04628184425022
  C   -1.76254831675426      2.72460629309371      1.62731829660328
  C   -0.57490899493636      2.01289049828008      1.79910973593042
  C   -0.61986345388397      0.75057821056895      2.39281331606536
  C   -1.83051963034790      0.21064039678718      2.81254353076624
  C   -3.00953338231864      0.92954797310205      2.64108354755383
  H   -3.89081994629837      2.74564336731280      1.90312365502816
  H   -3.95312066942284      0.50836384578006      2.96389022347623
  H   -1.73811116748971      3.70085286077187      1.15655453272150
  H   0.29673117119099      0.18610580642176      2.52275865748913
  H   -1.85471633044607     -0.77138109491709      3.26770928130485
  C   0.74528454433746      2.60872573242628      1.38725391185775
  N   1.36068581304118      3.41371247380985      2.49766988957057
  H   0.61005967472925      3.28590617169626      0.54438473801610
  H   1.36354288566745      1.93917423844785      1.14888146771259
  H   0.70585706918420      4.13916641424772      2.78259456970396
  H   1.47348324352348      2.81391268122391      3.31321971793731
  Cu  3.07530886923080      4.24863629198451      2.10584908401114
