18
Coordinates from ORCA-job orca
  C   -2.97622685241044      2.18744932207274      2.04629153809902
  C   -1.76484991755433      2.72566452678756      1.62728836375452
  C   -0.57659945736092      2.01502209321680      1.79932481488797
  C   -0.62054183377092      0.75280568538235      2.39335501349488
  C   -1.83070844220397      0.21198752306321      2.81325137426992
  C   -3.01036572338524      0.92979505314592      2.64145725318904
  H   -3.89315819813015      2.74487550291436      1.90286518242002
  H   -3.95361955026512      0.50782249397819      2.96420736173077
  H   -1.74124384387237      3.70188023981812      1.15640514469755
  H   0.29652527109545      0.18914767491424      2.52312533271163
  H   -1.85408693198348     -0.76998407552471      3.26856858763489
  C   0.74230011934903      2.61316618347071      1.38793637231947
  N   1.35943926904937      3.41456325730433      2.49922156949932
  H   0.60726931171987      3.29131142603342      0.54608255107327
  H   1.38662726756593      1.91600804624029      1.13666549435025
  H   0.70462142853134      4.13893334936751      2.78739742372536
  H   1.47401885438343      2.81251455008073      3.31282129733039
  Cu  3.07305922924295      4.25149714773294      2.10677532481039
