18
Coordinates from ORCA-job orca
  C   -2.96551133118369      2.18728735264959      2.04881964139394
  C   -1.75237574783499      2.72125295418854      1.63010351762600
  C   -0.56770189955278      2.00455319508925      1.79879271477178
  C   -0.61611173980817      0.74052747212948      2.38847194255088
  C   -1.82862880532962      0.20314779626381      2.80688775546896
  C   -3.00485085307909      0.92718715136040      2.63904929944720
  H   -3.88008965792078      2.74943020544013      1.90881906544857
  H   -3.94974727461389      0.50857416708987      2.96137695479289
  H   -1.72462201801869      3.69861248265069      1.16180067177867
  H   0.29847936175278      0.17247385812039      2.51784000755445
  H   -1.85612183380717     -0.78019301824749      3.25900424387722
  C   0.75851099854807      2.58793893389563      1.38625004029095
  N   1.36403249172203      3.41329095162471      2.48906033745256
  H   0.62444694725880      3.25571122751809      0.53599577249340
  H   1.25942888883024      2.04140357366783      1.21011269629094
  H   0.71255199710485      4.14999721251005      2.74932329994935
  H   1.45994355695076      2.82908266145974      3.31818696509763
  Cu  3.09082691898178      4.22418182258795      2.10314507371322
