18
Coordinates from ORCA-job orca
  C   -2.97031064259431      2.18754352602339      2.04728616192079
  C   -1.75781186346558      2.72294171112459      1.62823406235903
  C   -0.57157604719515      2.00882502903789      1.79868737912757
  C   -0.61836066710467      0.74587885602607      2.39087891490001
  C   -1.82993173492476      0.20744855776610      2.81026264419211
  C   -3.00756840389753      0.92884283962946      2.64035238803427
  H   -3.88583264697290      2.74770069836902      1.90546405917608
  H   -3.95179262789244      0.50907832799010      2.96315306045804
  H   -1.73172533002580      3.69957799747277      1.15834674369780
  H   0.29721106308199      0.17960563877271      2.52071066683155
  H   -1.85575966490603     -0.77503729217003      3.26433789161831
  C   0.75175967636429      2.59887167045594      1.38613121995406
  N   1.36229477959110      3.41316954076102      2.49401360143462
  H   0.61603314596439      3.27317857746679      0.54076542380839
  H   1.31808458051397      1.98411217663440      1.17543981046729
  H   0.70791347700049      4.14236463853182      2.76911248643786
  H   1.46902139634391      2.81969072677039      3.31508701866343
  Cu  3.08081151011948      4.24066677933628      2.10477646691741
