18
Coordinates from ORCA-job orca
  C   -3.01168413208123      2.16260768887938      2.00388100146774
  C   -1.80939808408125      2.72501043254170      1.58776903244322
  C   -0.60362308806967      2.05654062636158      1.80157935663704
  C   -0.62002168932252      0.81220394337384      2.43484339549177
  C   -1.81934053395975      0.25007283258315      2.85389970417048
  C   -3.01786607002850      0.92558721957048      2.63962694235090
  H   -3.94203114945872      2.68737281729587      1.82766250297972
  H   -3.95305977476093      0.48509696753063      2.96100391919804
  H   -1.80679101696151      3.68735612461000      1.08920852255395
  H   0.31108019630599      0.27908094486269      2.59017185793592
  H   -1.82103246472926     -0.71752759029190      3.33950790152347
  C   0.69042935534464      2.69443199447950      1.39596939702236
  N   1.38442039941545      3.37089148033616      2.52922740616992
  H   0.55160320046311      3.42144500410714      0.60049448827517
  H   1.50156998962555      1.80953456489501      0.94593450334133
  H   0.76082008459731      4.07718990231241      2.91871588111937
  H   1.53237559345749      2.69711099909004      3.27811199019917
  Cu  3.09500918424418      4.21045404746111      2.11543219711921
