18
Coordinates from ORCA-job orca
  C   -3.06556661052055      2.08835986491206      1.89070459657585
  C   -1.87923726777265      2.70424925764689      1.50413785729905
  C   -0.64725992999049      2.13868136910461      1.83440928608795
  C   -0.62126866951562      0.94114958363912      2.55484394079039
  C   -1.80365179487527      0.32924481884993      2.94557514344177
  C   -3.02991871723759      0.90212510246185      2.61396647118063
  H   -4.01509650291838      2.53636611829679      1.62707507658374
  H   -3.95177564010675      0.42124496712276      2.91506767658212
  H   -1.90877212014674      3.63099141602382      0.94359141580453
  H   0.32860742764642      0.47761060757234      2.79607145058241
  H   -1.77171607040232     -0.59989723913509      3.50018607290760
  C   0.60980254630607      2.83282981712781      1.44079939600433
  N   1.47285386780588      3.24792894968760      2.56509098723695
  H   0.44158639788625      3.67458888872420      0.77891063660175
  H   1.46826982054332      1.89172285214235      0.60783143369148
  H   0.94734920542920      3.89596229956187      3.15338312094013
  H   1.67270122627353      2.44442645804471      3.15685661012998
  Cu  3.17555283159603      4.07687486821528      2.08453882755822
