18
Coordinates from ORCA-job orca
  C   -2.97265649368015      1.85671931780344      1.65221327781456
  C   -1.83797180145488      2.61986268183838      1.41314601511998
  C   -0.62641524222023      2.28817212087694      2.02369471775035
  C   -0.56086448288490      1.17294867811107      2.86366352583914
  C   -1.69631520396813      0.41198083860439      3.09929924762791
  C   -2.90444708687980      0.75259312235736      2.49577072100423
  H   -3.90957763624864      2.12462355910546      1.18165350150255
  H   -3.78822515278375      0.15576446540097      2.68032047514535
  H   -1.88886652457701      3.47937827329562      0.75602144365800
  H   0.37559997087489      0.87998930269912      3.32310494639388
  H   -1.63870429805983     -0.45075288574739      3.74997854867784
  C   0.54094922270988      3.15382028146998      1.77266226462408
  N   1.49201847338810      3.33288730700724      2.79508846136340
  H   0.33178383455476      4.05730196436016      1.21768384457722
  H   1.04861298892981      2.39474290205919      0.19603196579258
  H   1.84051967063515      4.27221660547843      2.92810764050290
  H   1.35542003678148      2.81859226007833      3.65407515330355
  Cu  2.26159972488348      2.31361920520054      1.11052424930164
