18
Coordinates from ORCA-job orca
  C   -3.01076095199292      1.89095478733526      1.71149643124704
  C   -1.87610726054651      2.64209057170687      1.43047734544623
  C   -0.64038668217108      2.27552894383680      1.96614371212705
  C   -0.55187381118405      1.14068295604733      2.77692295448554
  C   -1.68649328751129      0.39372597772155      3.05772356384602
  C   -2.91863127620463      0.76768414507977      2.52609287208206
  H   -3.96609431330365      2.18492016233835      1.29661985571336
  H   -3.80220594813470      0.18197673404190      2.74438205005389
  H   -1.94755997437716      3.51935635268552      0.79920920017062
  H   0.40494121382768      0.82647898644988      3.17718374594899
  H   -1.61031093063655     -0.48406026570174      3.68619787493377
  C   0.54250816574407      3.11248224813683      1.67052270492968
  N   1.49451994730649      3.32870086965307      2.73619707762053
  H   0.31666162023806      4.01970195789078      1.12557944302540
  H   1.16324505676083      2.36470538944413      0.42222807722318
  H   1.70722201390893      4.30691238464560      2.88517274469103
  H   1.23713096484970      2.88176946903425      3.60729824849261
  Cu  2.56665545342710      2.28084832965286      1.29359209796196
