18
Coordinates from ORCA-job orca
  C   -2.99403469864665      2.17942907463990      2.03347921539540
  C   -1.78671642785454      2.72915814320837      1.61652579106680
  C   -0.59052906212984      2.03488084591042      1.80233404282876
  C   -0.62249971192509      0.77780811356650      2.40819538096114
  C   -1.82780023457357      0.22691313395218      2.82709715802648
  C   -3.01575340486975      0.92803057249992      2.64123666745739
  H   -3.91686789331205      2.72393671275191      1.87888027417481
  H   -3.95541672209719      0.49703757376240      2.96249664061029
  H   -1.77247081393927      3.70156518300147      1.13774398725992
  H   0.30085987969076      0.22632257040383      2.54405518062565
  H   -1.84159033452237     -0.75113741261654      3.29112745672221
  C   0.71402468356407      2.65584860238989      1.39521663403335
  N   1.36372134876546      3.40576400496446      2.51356718831360
  H   0.58463474962394      3.34594685296006      0.56470133416807
  H   1.49198871828080      1.81040869265908      1.04193584494469
  H   0.72112371189188      4.12509763270217      2.84305081085711
  H   1.49317555249097      2.77538960657524      3.30279760131498
  Cu  3.07661065956284      4.24206009666751      2.10859879123809
