18
Coordinates from ORCA-job orca
  C   -2.97929928621575      2.18627246994422      2.04408033936741
  C   -1.76850595095369      2.72626343390296      1.62542966365803
  C   -0.57891099563419      2.01821697778768      1.79975028034288
  C   -0.62103498973508      0.75694236233492      2.39589560415161
  C   -1.83043650156752      0.21462054178017      2.81569920429792
  C   -3.01145742783185      0.92973289411424      2.64149949109254
  H   -3.89718226897358      2.74162850874741      1.89871181922389
  H   -3.95414720729346      0.50637152062924      2.96407331296676
  H   -1.74639702306497      3.70182956669086      1.15319009681762
  H   0.29709276930734      0.19528837800071      2.52660529327517
  H   -1.85227885071796     -0.76665329239876      3.27258812253803
  C   0.73736643641353      2.62060548265898      1.38896877637646
  N   1.36011167582813      3.41294833181144      2.50178725508608
  H   0.60358894436698      3.30075634435521      0.54889989533726
  H   1.40635095846956      1.89626937819705      1.12011766842392
  H   0.70664771077202      4.13554056986505      2.79820249597377
  H   1.47862874736757      2.80553033081143      3.31075123091224
  Cu  3.07232325946334      4.25229620076592      2.10678945015710
