18
Coordinates from ORCA-job orca
  C   -2.98670326118951      2.18346729721715      2.03962308415754
  C   -1.77762152519102      2.72818096346076      1.62169295041144
  C   -0.58485409904157      2.02656789395352      1.80096652923267
  C   -0.62205919111429      0.76708954816673      2.40134690239731
  C   -1.82942937247420      0.22061873189696      2.82090312348868
  C   -3.01379363093903      0.92917761879235      2.64160984063050
  H   -3.90697756001554      2.73373550020512      1.89017690346160
  H   -3.95500296268475      0.50209833151316      2.96359051141209
  H   -1.75933663336244      3.70241413743991      1.14663557956251
  H   0.29859381943142      0.21023249552674      2.53403652866198
  H   -1.84736303187239     -0.75928213454133      3.28088801633096
  C   0.72567505803910      2.63815757797252      1.39192818008665
  N   1.36091825962482      3.41039298867181      2.50768398695938
  H   0.59402521683664      3.32299683762168      0.55641136104290
  H   1.45632664690454      1.84577584581130      1.08021766768399
  H   0.71194455535388      4.13093381760395      2.82020700774767
  H   1.48544714870867      2.79186972913711      3.30713566621530
  Cu  3.07267056298605      4.25003281954930      2.10798616051555
