18
Coordinates from ORCA-job orca
  C   -3.00257118304559      1.88861746932916      1.70539904749258
  C   -1.86741460027362      2.64110367327215      1.42993259050214
  C   -0.63475972752971      2.27674861658070      1.97383910414721
  C   -0.54915153322244      1.14266770752591      2.78593691097676
  C   -1.68390493731666      0.39380961671376      3.05994105440769
  C   -2.91347911452402      0.76584057677383      2.52097625673745
  H   -3.95596367913528      2.18088614588428      1.28495156269619
  H   -3.79730408771829      0.17864750984422      2.73412641365292
  H   -1.93638570853161      3.51744432917004      0.79713999599268
  H   0.40595919665265      0.83009350510762      3.19157484745019
  H   -1.60972906735311     -0.48395798034769      3.68863649984215
  C   0.54701474517909      3.11849894765712      1.68821428165674
  N   1.48466355411726      3.33830919516312      2.75362968428799
  H   0.32799798193202      4.01931676874005      1.13066382493344
  H   1.14658525533779      2.35802117398674      0.38703298931597
  H   1.72819150035762      4.31054171469334      2.89045440371919
  H   1.23919311246395      2.88922992273107      3.62637233733621
  Cu  2.49351829261026      2.26864110717365      1.26421819485155
