18
Coordinates from ORCA-job orca
  C   -2.95997750546278      1.83802275602102      1.62521972654814
  C   -1.82819188242232      2.60966718856239      1.40522798037798
  C   -0.62812781581810      2.29830116711690      2.04986460107110
  C   -0.57176708783342      1.19393950904839      2.90511126803239
  C   -1.70505533238089      0.42392373772007      3.12133468372203
  C   -2.90085096044133      0.74417578543970      2.48345878338521
  H   -3.88763293801381      2.08991200728359      1.12826384585551
  H   -3.78257559388981      0.13984861592989      2.65285443712739
  H   -1.87071598042993      3.45938515448867      0.73491676558658
  H   0.35419375164552      0.91561673173200      3.39366148645474
  H   -1.65516957896033     -0.42989739598118      3.78420774030852
  C   0.53203583595395      3.17284399525237      1.81271888479513
  N   1.50766178497470      3.31695573708131      2.80472854904602
  H   0.32546090630170      4.08400805541860      1.26970158884026
  H   1.00539966158821      2.42896969849772      0.10489517704138
  H   1.89679654538686      4.23988232886801      2.94036277902566
  H   1.41714462170352      2.77061913028396      3.64968508532115
  Cu  2.17383156809849      2.33828579723590      1.04682661746008
