18
Coordinates from ORCA-job orca
  C   -2.97132751490517      2.18750772925425      2.04696970525815
  C   -1.75898899392042      2.72332106900561      1.62792302527588
  C   -0.57239961439345      2.00980749897741      1.79875806459469
  C   -0.61875497227546      0.74705466000670      2.39140043795119
  C   -1.83010670687163      0.20829231575254      2.81090127021879
  C   -3.00808159345402      0.92906384526181      2.64055239868397
  H   -3.88707918521737      2.74719331109426      1.90476712305650
  H   -3.95215034059451      0.50897515639392      2.96338494219153
  H   -1.73329840969932      3.69983197294653      1.15775974286244
  H   0.29706588648835      0.18122739499095      2.52131031271022
  H   -1.85553816666773     -0.77404470402148      3.26532104634312
  C   0.75018285605350      2.60130836051043      1.38632292315164
  N   1.36194112061976      3.41320447085321      2.49497233967941
  H   0.61445408904613      3.27653849292815      0.54171475742077
  H   1.32951066543990      1.97289467803578      1.16860858545305
  H   0.70733148443407      4.14126471422884      2.77280699007275
  H   1.47044655616163      2.81798882117164      3.31452962125691
  Cu  3.07925283975616      4.24303021260813      2.10503671381765
