18
Coordinates from ORCA-job orca
  C   -2.95216017260988      1.82697229625757      1.60965188788104
  C   -1.82342404880634      2.60611665068301      1.40514816021306
  C   -0.63178284168636      2.30762749781756      2.07258163161070
  C   -0.58075727994526      1.20746623710698      2.93442666408767
  C   -1.71124938652131      0.42960012051832      3.13436264899856
  C   -2.89829087398092      0.73740673051913      2.47412068105426
  H   -3.87315209354213      2.06844065623416      1.09555300267095
  H   -3.77774541978469      0.12647480658388      2.63108306419640
  H   -1.86012712724503      3.45123203952818      0.72880185920318
  H   0.33808172045011      0.93857474490480      3.44114307496193
  H   -1.66626276293045     -0.42072116940302      3.80196404339180
  C   0.52051193387419      3.18962238119451      1.84861177720074
  N   1.51511116440474      3.31070954714712      2.81341745659928
  H   0.32110132606057      4.10094907758865      1.30287038836455
  H   0.99973794528906      2.43081613676956      0.01440364796127
  H   1.93886264195323      4.21957014023249      2.94210759380961
  H   1.45952182502930      2.74506870852679      3.64878370212118
  Cu  2.10448344999140      2.35853339778970      1.01400871567314
