18
Coordinates from ORCA-job orca
  C   -2.98918879697164      2.18175101079246      2.03690598353558
  C   -1.78065173894023      2.72820075024002      1.61945029070307
  C   -0.58663566763690      2.02927635473300      1.80141594389165
  C   -0.62205211328144      0.77083603837831      2.40411595208563
  C   -1.82874225373075      0.22287078864149      2.82336217279209
  C   -3.01440228911531      0.92867799569732      2.64132323690663
  H   -3.91037959274169      2.72989361049436      1.88530202758647
  H   -3.95509050127885      0.50026372292129      2.96304719301769
  H   -1.76375217785669      3.70166206151207      1.14283292199820
  H   0.29958618220754      0.21595856492503      2.53821726762362
  H   -1.84523162290863     -0.75623090161439      3.28509351246032
  C   0.72179126045173      2.64411528231223      1.39289912117211
  N   1.36262316089042      3.40799537089975      2.50965834132320
  H   0.59104456791213      3.33097312620105      0.55919146659675
  H   1.46349327916701      1.83866044026275      1.06842322548125
  H   0.71610975467541      4.12807025797019      2.82880275604421
  H   1.48921334735097      2.78498584728590      3.30524625152619
  Cu  3.07472520180732      4.24649967834593      2.10775233525406
