18
Coordinates from ORCA-job orca
  C   -2.96925242844684      1.85161784910738      1.64462708337126
  C   -1.83505514587722      2.61654144613880      1.41024137417046
  C   -0.62652684942054      2.29016863415862      2.02996118388715
  C   -0.56362620219931      1.17825037180610      2.87452898771974
  C   -1.69886443948049      0.41542158531479      3.10555054664630
  C   -2.90376041289432      0.75068505617192      2.49278612103822
  H   -3.90371019416164      2.11534255602149      1.16687804913115
  H   -3.78725452213861      0.15233653540411      2.67376021468329
  H   -1.88357763802061      3.47314283812633      0.74913896358875
  H   0.36991913876095      0.88883392161449      3.34193474912177
  H   -1.64346212607019     -0.44454930179664      3.76005304680639
  C   0.53917492365125      3.15796067530800      1.78214287165323
  N   1.49705685227886      3.32817764379350      2.79728288973872
  H   0.32886958720505      4.06421658931854      1.23221231243049
  H   1.03518323218219      2.40672925469815      0.17509867938276
  H   1.85415792531064      4.26396575778217      2.93236711643777
  H   1.37301580446649      2.80472535257508      3.65255666349731
  Cu  2.24017249485459      2.32089323445643      1.09191914669441
