18
Coordinates from ORCA-job orca
  C   -2.94630533460523      1.81595192027165      1.59522831578768
  C   -1.82280329022721      2.60632699784127      1.41217891111703
  C   -0.64083843579137      2.32182028215081      2.10504619350120
  C   -0.59486074060073      1.22283020098913      2.97051386424905
  C   -1.72043936679164      0.43397733913535      3.14823998221327
  C   -2.89702912789247      0.72831509043005      2.46276892794317
  H   -3.85930525150806      2.04587136330854      1.06216255591278
  H   -3.77254540163595      0.10777531030236      2.60296778430896
  H   -1.85351934082284      3.44935373031789      0.73312947170808
  H   0.31508522846750      0.96457097311700      3.49783564117611
  H   -1.68068374520713     -0.41463504749951      3.81819577242832
  C   0.49881880666971      3.21387257263423      1.89748766576035
  N   1.52647494641776      3.30321979315531      2.81712089740597
  H   0.30739082614143      4.12563408597077      1.34832124444432
  H   1.03837869212665      2.39934605739101     -0.12042848129512
  H   1.98192822480728      4.19848750122814      2.93808177903042
  H   1.51390521688699      2.71615576153618      3.64010941482965
  Cu  2.02880809356548      2.39558606771931      0.98408005947821
