18
Coordinates from ORCA-job orca
  C   -2.94660128006445      1.81664416768284      1.59613407426704
  C   -1.82246714964663      2.60573691396472      1.41091829616046
  C   -0.63984933520357      2.32026974683465      2.10201658334060
  C   -0.59355172173453      1.22143020539766      2.96744973003879
  C   -1.71971623756604      0.43377242828623      3.14735736570721
  C   -2.89716410284519      0.72921353659447      2.46391571818016
  H   -3.86022868145201      2.04747074615060      1.06452057992280
  H   -3.77314273617184      0.10969849375038      2.60575131826825
  H   -1.85349777840698      3.44861783376832      0.73168534174054
  H   0.31714158961896      0.96217190264522      3.49305499245711
  H   -1.67961969732129     -0.41475856714631      3.81740583589107
  C   0.50097769932858      3.21144034545461      1.89320473136831
  N   1.52554043738051      3.30383646792546      2.81733961841973
  H   0.30888024680279      4.12303163873531      1.34403064761648
  H   1.03261312590691      2.40578043748894     -0.10818472911636
  H   1.97896728126868      4.20003301085020      2.93867205055609
  H   1.50943142073064      2.71862531141779      3.64154291059178
  Cu  2.03474691937561      2.39144538019840      0.98622493458938
