18
Coordinates from ORCA-job orca
  C   -2.94683502594142      1.81746653930676      1.59715911390746
  C   -1.82228988184270      2.60568601085833      1.41014216105648
  C   -0.63879921765910      2.31914002803080      2.09900268193868
  C   -0.59215791965130      1.22048673654267      2.96439110222042
  C   -1.71872939594112      0.43362104068388      3.14620823860717
  C   -2.89701916098026      0.72993864613667      2.46477781383181
  H   -3.86114137825233      2.04916881425209      1.06706598056214
  H   -3.77330186400193      0.11117187276223      2.60801877193993
  H   -1.85382914852830      3.44859943758782      0.73094512678417
  H   0.31928721612544      0.96058308434674      3.48842299679603
  H   -1.67816694307854     -0.41493347095301      3.81621718171844
  C   0.50347944360319      3.20936750882159      1.88848886074095
  N   1.52425407126836      3.30417643619990      2.81714348971203
  H   0.31099470617857      4.12135693478013      1.34038283377103
  H   1.02634983977328      2.40869852657294     -0.09502813048893
  H   1.97523570144286      4.20133537604038      2.93949444478788
  H   1.50393208902786      2.72047349327193      3.64217773210227
  Cu  2.04119686845761      2.38812298475762      0.98802960001147
