18
Coordinates from ORCA-job orca
  C   -2.96153212366994      1.83998663754311      1.62815369079240
  C   -1.82917199805344      2.61016587128437      1.40534124681468
  C   -0.62769773375002      2.29637854246717      2.04587762202140
  C   -0.57041848463879      1.19129289447134      2.89994430957966
  C   -1.70426048696529      0.42281930548963      3.11916720941916
  C   -2.90156408820569      0.74541351599735      2.48536007189336
  H   -3.89031325011669      2.09379813240962      1.13427306335169
  H   -3.78373949816001      0.14240653595852      2.65709359165805
  H   -1.87259614898563      3.46068679755429      0.73609045555741
  H   0.35670343017099      0.91106277354540      3.38521379944884
  H   -1.65352667510414     -0.43161213914402      3.78120790637785
  C   0.53396792981242      3.16932760257735      1.80622801494258
  N   1.50634870371386      3.31812046369163      2.80320729911784
  H   0.32566605560534      4.08055363846827      1.26390999307771
  H   1.00916546667254      2.42984167122439      0.11952956403275
  H   1.88920679263072      4.24352537510304      2.93939741260695
  H   1.41017728866433      2.77517221994282      3.64969529343860
  Cu  2.18604482037968      2.33552016141501      1.05334945586832
