18
Coordinates from ORCA-job orca
  C   -2.96453802473349      2.18721528718222      2.04918017024713
  C   -1.75129763198053      2.72095035110263      1.63053327691031
  C   -0.56691760520461      2.00375007702609      1.79881838163110
  C   -0.61559154749343      0.73949572969429      2.38795452810911
  C   -1.82828013023986      0.20226626719087      2.80614635937148
  C   -3.00424594611453      0.92680510023764      2.63877199584756
  H   -3.87894199343784      2.74974857920208      1.90961466715317
  H   -3.94925980408507      0.50837840661232      2.96099800296684
  H   -1.72324132126948      3.69849987148544      1.16264274203060
  H   0.29883387014500      0.17113611666754      2.51718630083866
  H   -1.85607399104280     -0.78126896909838      3.25781804559814
  C   0.75968862604491      2.58591953433859      1.38646157284578
  N   1.36422822259861      3.41337810993931      2.48801924068131
  H   0.62637168844936      3.25190314969103      0.53495738921375
  H   1.24750005262807      2.05305716401319      1.21716389031417
  H   0.71357209735131      4.15187136901875      2.74502125545869
  H   1.45760165721367      2.83118600067883      3.31886990921202
  Cu  3.09305178117116      4.22016785501620      2.10288227156879
