18
Coordinates from ORCA-job orca
  C   -3.06395828840661      2.09086977024124      1.89343884007474
  C   -1.87701257169544      2.70452748095856      1.50510395489520
  C   -0.64565736181370      2.13587980160572      1.83183164570100
  C   -0.62092314270526      0.93756509698610      2.55091478157327
  C   -1.80387047775534      0.32783116187683      2.94372541309903
  C   -3.02950225892636      0.90372271842387      2.61533604187969
  H   -4.01306211617988      2.54120429822871      1.63222698086851
  H   -3.95181236558246      0.42455322569394      2.91779272696979
  H   -1.90570150484825      3.63198273023725      0.94563542890706
  H   0.32846658920890      0.47190156529497      2.79007714275034
  H   -1.77271350270648     -0.60185188696589      3.49749546765007
  C   0.61433363330892      2.82635048413207      1.43571786018170
  N   1.47132724776143      3.24931586735043      2.56378491374727
  H   0.44487603909632      3.66764908152042      0.77315898704661
  H   1.46409374505589      1.89246340706833      0.62222743321272
  H   0.94018443926566      3.89553047089190      3.14871589460424
  H   1.67248552129298      2.44771206669178      3.15766269623255
  Cu  3.17090637563003      4.08725265976267      2.08819379060506
