18
Coordinates from ORCA-job orca
  C   -2.94606477711862      1.81470748666156      1.59361364312847
  C   -1.82360532872738      2.60720416260801      1.41447334690761
  C   -0.64303631420189      2.32446257511486      2.11103731051858
  C   -0.59757049477769      1.22484994086795      2.97626869259728
  C   -1.72212712777323      0.43405175431533      3.14990162150807
  C   -2.89716908946875      0.72672745334730      2.46075573981264
  H   -3.85787407860467      2.04307541070833      1.05789875685714
  H   -3.77191934897015      0.10444763879035      2.59797117807155
  H   -1.85363467808777      3.45060695323115      0.73590766428091
  H   0.31099113789457      0.96804231618243      3.50656331532500
  H   -1.68309858616420     -0.41483971290756      3.81951655982723
  C   0.49377634932761      3.21842442165748      1.90654277977608
  N   1.52849816324646      3.30279698226381      2.81693343985420
  H   0.30348694064473      4.12956966027959      1.35560502392938
  H   1.05193934022758      2.38854756507175     -0.14462338627249
  H   1.98830886361420      4.19627270885596      2.93610127750445
  H   1.52406652743769      2.71251830748512      3.63791343280040
  Cu  2.01749250150168      2.40299437546610      0.98065960357299
