18
Coordinates from ORCA-job orca
  C   -2.95365363068486      1.79796746683737      1.58113702814099
  C   -1.85000496173145      2.62264750370956      1.45009155807530
  C   -0.68356379291221      2.36334045098158      2.18685637810162
  C   -0.63901112241013      1.25650079219518      3.04944472377320
  C   -1.74648355034613      0.43827890060232      3.17587447426093
  C   -2.90328148082048      0.70558887589421      2.44292148834322
  H   -3.85186409041004      2.00348656292113      1.01460686363881
  H   -3.76503473090370      0.05895122440455      2.54544909174507
  H   -1.87770688383049      3.47205335422189      0.77939970407468
  H   0.25177477130523      1.02602040005865      3.61933076971029
  H   -1.71324880826216     -0.41187217627911      3.84387036611561
  C   0.41964248916483      3.27922269787995      2.01680349778535
  N   1.54787979952416      3.28102990334306      2.78731156139484
  H   0.23002413391688      4.20142468974670      1.48066584584383
  H   1.35001770837968      2.24835960258168     -0.43990308351827
  H   2.04618069849957      4.15573829017979      2.90778558114086
  H   1.64217830036173      2.62896767224502      3.55695136090725
  Cu  1.91861515115965      2.50675378847618      0.91444279046608
