18
Coordinates from ORCA-job orca
  C   -2.95408085488545      1.82969154817114      1.61349755815471
  C   -1.82444644139595      2.60667663874980      1.40449414478950
  C   -0.63042980673139      2.30493729213255      2.06577992302329
  C   -0.57808490545853      1.20403829259568      2.92629496773734
  C   -1.70937165291530      0.42831093329421      3.13088555429791
  C   -2.89881716874887      0.73923040346149      2.47660579794154
  H   -3.87695727345083      2.07392336037130      1.10405649746674
  H   -3.77890935001698      0.13013029188382      2.63711632327672
  H   -1.86280068426222      3.45282044609577      0.72948609088156
  H   0.34276820826920      0.93295112752915      3.42825028073510
  H   -1.66309287916084     -0.42271848299892      3.79752631279888
  C   0.52426464657083      3.18500716728709      1.83810607305943
  N   1.51260010313397      3.31213247944606      2.81106072247388
  H   0.32363368391574      4.09643505449758      1.29321869280957
  H   0.99699133870242      2.43332609810090      0.04380704675407
  H   1.92745254093264      4.22463952426019      2.94209128913811
  H   1.44691829069592      2.75152015201813      3.64898021585846
  Cu  2.12482220480598      2.35140767310305      1.02178250880215
