18
Coordinates from ORCA-job orca
  C   -2.98157053033375      1.86927216674684      1.67151224643565
  C   -1.84607889693317      2.62816532066217      1.41986816906965
  C   -0.62695701858669      2.28344620034289      2.00662730276202
  C   -0.55437038149881      1.16043480758703      2.83544129111030
  C   -1.68993373303859      0.40395702391392      3.08363707655240
  C   -2.90612880881166      0.75740042249040      2.50375331880432
  H   -3.92466325346934      2.14715287418721      1.21939321732148
  H   -3.79029027967395      0.16418917926970      2.69784167290068
  H   -1.90326125953715      3.49455542548762      0.77237233356184
  H   0.38933591279555      0.85942511250328      3.27481337425356
  H   -1.62639282083133     -0.46533573904148      3.72501088674861
  C   0.54533083173457      3.14219462524839      1.74621683310951
  N   1.48213960361884      3.34185539165374      2.78710498959415
  H   0.33678577472360      4.04038144580142      1.18211119719052
  H   1.08219909475623      2.37137630592961      0.25549364918757
  H   1.80467305507128      4.29105687624348      2.91607314555344
  H   1.30959134781886      2.85217876678016      3.65423645349308
  Cu  2.32205136219593      2.29275379419237      1.16153284234995
