18
Coordinates from ORCA-job orca
  C   -2.94985318048853      1.79774255217725      1.57919194357153
  C   -1.84285557931152      2.61718825380068      1.44157789938394
  C   -0.67613730833268      2.35658173584253      2.17626635458866
  C   -0.63373916163842      1.25327960662759      3.04248099797458
  C   -1.74435245522430      0.43956959903880      3.17541279366640
  C   -2.90207314977959      0.70856800904171      2.44516610595731
  H   -3.84871608387863      2.00508390824986      1.01429725816604
  H   -3.76628940909831      0.06603820339052      2.55263708484592
  H   -1.86900032061803      3.46379850693146      0.76724650796661
  H   0.25808327866671      1.02075570654017      3.61001977857009
  H   -1.71216109991609     -0.40823639388739      3.84647953950189
  C   0.43174979185019      3.26965367788420      2.00243834321166
  N   1.54853302397544      3.28089856609662      2.79338755120840
  H   0.24185272704498      4.19165320714677      1.46638051988278
  H   1.28916015596727      2.27992228766520     -0.40667832001607
  H   2.04111869224591      4.15815594985028      2.91652706619816
  H   1.63021730530033      2.63547936826300      3.56967798149283
  Cu  1.92692277323537      2.49832725534039      0.92053059382889
