18
Coordinates from ORCA-job orca
  C   -2.96170192594945      1.84010621531067      1.62832984265196
  C   -1.82948698331263      2.61051793663306      1.40557697362075
  C   -0.62785136562365      2.29679880646874      2.04588567482880
  C   -0.57034713964811      1.19146870979741      2.89965213898912
  C   -1.70398470416601      0.42271286618173      3.11873295488235
  C   -2.90142733003689      0.74527560111513      2.48515104281322
  H   -3.89060957016023      2.09394057748875      1.13469679004051
  H   -3.78344214777077      0.14200121305999      2.65676887896065
  H   -1.87314837150512      3.46127438560212      0.73664315976592
  H   0.35698456518200      0.91148173339578      3.38467141353267
  H   -1.65309763995870     -0.43192950888267      3.78048752543615
  C   0.53358083748402      3.17008325065263      1.80642085094502
  N   1.50586230167833      3.31829117392848      2.80291472334754
  H   0.32668891542632      4.08102100356408      1.26315898319338
  H   1.00873625480313      2.42740292732286      0.12111452596605
  H   1.88893363172122      4.24359575195711      2.93935079343671
  H   1.40892600623979      2.77577122539760      3.64961079454596
  Cu  2.18784466559710      2.33464613100542      1.05387293304209
