18
Coordinates from ORCA-job orca
  C   -2.94563177339872      1.81454711552978      1.59338600938596
  C   -1.82287198031538      2.60643915214843      1.41313207837532
  C   -0.64208455584999      2.32351783889861      2.10902622206368
  C   -0.59669421378455      1.22455452462287      2.97491267843329
  C   -1.72152317076984      0.43424938347184      3.14965597995255
  C   -2.89681181430072      0.72700927016706      2.46108453596343
  H   -3.85763696459649      2.04307339238947      1.05805589628852
  H   -3.77176396230079      0.10520123461509      2.59915414385228
  H   -1.85289640523841      3.44937619767501      0.73397226531566
  H   0.31214807890609      0.96772947880716      3.50474604298618
  H   -1.68246355628692     -0.41428881906818      3.81972813423498
  C   0.49556475156570      3.21703880264189      1.90390931456940
  N   1.52704910793419      3.30310448498732      2.81773801790358
  H   0.30644986281088      4.12767043851719      1.35199194436875
  H   1.04144769890586      2.39853499685635     -0.13292826632606
  H   1.98800463387852      4.19599678196855      2.93590732791409
  H   1.52051290285835      2.71369390228363      3.63919700046263
  Cu  2.02166135998247      2.39701182348720      0.98037067425498
