18
Coordinates from ORCA-job orca
  C   -2.94410522652468      1.80002336019556      1.57801287404473
  C   -1.83146160083450      2.61044503381148      1.42908313909237
  C   -0.66298189014312      2.34537854326669      2.15699861544040
  C   -0.62290968974862      1.24638224869374      3.02668394446078
  C   -1.73877884235698      0.44016381136173      3.17077689019320
  C   -2.89929286321197      0.71393415701747      2.44801851168688
  H   -3.84493520815131      2.01209558021924      1.01788744274576
  H   -3.76732996007388      0.07796227328960      2.56332890164399
  H   -1.85591930707235      3.45348749207951      0.75010952901971
  H   0.27206522113393      1.00803460290134      3.58703004632591
  H   -1.70690208403813     -0.40566340628086      3.84444057232810
  C   0.45477773682858      3.25206498204693      1.97356693661445
  N   1.54768252292994      3.28497731611436      2.80342933748438
  H   0.26411370792780      4.17205474660428      1.43519006190112
  H   1.17650205538620      2.32651512212030     -0.32625813083532
  H   2.02925732690853      4.16749390752398      2.92784627249730
  H   1.60488363427753      2.65465557807389      3.59347916710549
  Cu  1.94779446676317      2.47445465096032      0.93341588825026
