18
Coordinates from ORCA-job orca
  C   -2.94432811135760      1.79916400796894      1.57741609820281
  C   -1.83240331936977      2.61077154099224      1.43014314518091
  C   -0.66451269059969      2.34676190978026      2.15968792190381
  C   -0.62454896017381      1.24772261589117      3.02956914470621
  C   -1.73977950613936      0.44052573950216      3.17207245888038
  C   -2.89953810179637      0.71315343725488      2.44753487238783
  H   -3.84460578912600      2.01023664262403      1.01604444380482
  H   -3.76710649399059      0.07633647599520      2.56171290450720
  H   -1.85675078382437      3.45388673157824      0.75127149251323
  H   0.26964667106872      1.01062130725814      3.59164870687415
  H   -1.70819794812391     -0.40511479366131      3.84597309178863
  C   0.45202044405750      3.25427759182603      1.97763466970470
  N   1.54843422238281      3.28362810202543      2.80214186954770
  H   0.26129452454008      4.17499637259244      1.44040038511848
  H   1.18807525862615      2.32285838406991     -0.33776711265559
  H   2.03144188258485      4.16537043417743      2.92707876402363
  H   1.60910539530209      2.65064211355057      3.58988611057065
  Cu  1.94421330593943      2.47862138657382      0.93059103293999
