18
Coordinates from ORCA-job orca
  C   -2.94716998797239      1.81892044785582      1.59875316612605
  C   -1.82172211758199      2.60532680685186      1.40841730159772
  C   -0.63685122283792      2.31668834353111      2.09363035133515
  C   -0.58968512221821      1.21808622870336      2.95885612054085
  C   -1.71703529982968      0.43294249940960      3.14396630282538
  C   -2.89681853545640      0.73127754882458      2.46609381211684
  H   -3.86264653370600      2.05232660820052      1.07139652724671
  H   -3.77378434642217      0.11405921155206      2.61186657058658
  H   -1.85404131762788      3.44835639945326      0.72937282551531
  H   0.32314188491591      0.95684149670442      3.47990508444866
  H   -1.67588160147680     -0.41576814657014      3.81376188840586
  C   0.50715885155538      3.20555104654699      1.88105792139441
  N   1.52179231382352      3.30600714394781      2.81737501912952
  H   0.31461306267073      4.11615877320153      1.33107456747678
  H   1.01275995345286      2.41884256465321     -0.06822431796047
  H   1.97000322050513      4.20442251968831      2.93946724914059
  H   1.49511917273304      2.72589242178780      3.64459067693823
  Cu  2.05350762547314      2.37852808565704      0.99167893313495
