18
Coordinates from ORCA-job orca
  C   -2.97331065115490      2.19486756112408      2.05510497662180
  C   -1.76093520869979      2.71976050518462      1.62258653415734
  C   -0.57592565704188      2.00509260657950      1.80022525305185
  C   -0.62409646028294      0.75240657079425      2.41360407232735
  C   -1.83545395882840      0.22465468038733      2.84672250420794
  C   -3.01179682356800      0.94642049695430      2.66926011293053
  H   -3.88774231037021      2.75527995771778      1.90741957193035
  H   -3.95594857553779      0.53482878052363      3.00259694093466
  H   -1.73399378006336      3.68852044677476      1.13669324137859
  H   0.29044573316271      0.18582139915523      2.54847816424705
  H   -1.86225044779705     -0.75004048830886      3.31723200881347
  C   0.74501104857370      2.58902228514568      1.37445883653604
  N   1.36220506348582      3.41684656947929      2.46671205639815
  H   0.61092348048835      3.24760042902988      0.51691390063951
  H   1.37487411273138      1.89870816665419      1.14602298695484
  H   0.70837163020587      4.14905792972925      2.73616327966414
  H   1.47414622493788      2.83439215092476      3.29486606285273
  Cu  3.07793657975923      4.24121995214849      2.05797949635178
