18
Coordinates from ORCA-job orca
  C   -2.94565743501899      1.80853836894462      1.58641950516570
  C   -1.82869775543316      2.61154093028789      1.42561006327021
  C   -0.65434198221499      2.33715179444348      2.13857589401425
  C   -0.61112318547905      1.23546416578922      3.00343332573053
  C   -1.73060842322967      0.43538074759657      3.15865599816643
  C   -2.89820095294221      0.71926586397432      2.45207776662984
  H   -3.85177745618627      2.02910727274242      1.03812017175201
  H   -3.76896418819382      0.08858130643898      2.57555714966564
  H   -1.85601464717738      3.45650393592205      0.74904321050337
  H   0.29080033856606      0.98690627099446      3.54832915796421
  H   -1.69493358192645     -0.41407579617650      3.82762178745222
  C   0.47075105814165      3.23886522264518      1.94612420095959
  N   1.53811579402173      3.29785873698299      2.81164890499591
  H   0.28254988697369      4.15134317958957      1.39519738289457
  H   1.12333766728445      2.33778263040636     -0.25015102959357
  H   2.01225006684581      4.18492228774412      2.92836412525296
  H   1.56995796228590      2.68884934289121      3.61908111589146
  Cu  1.97501683368288      2.44047373878252      0.95933126928408
