18
Coordinates from ORCA-job orca
  C   -2.96680533363741      2.19636282192213      2.05982103481240
  C   -1.75322048310749      2.71848566286870      1.62777485083965
  C   -0.57089157355423      1.99862610243609      1.80090567064212
  C   -0.62261660344265      0.74348384816697      2.40885658640760
  C   -1.83559206953290      0.21796116597618      2.84077877949079
  C   -3.00924613993251      0.94502933984792      2.66818961795174
  H   -3.87935573248713      2.76086870273765      1.91613458725124
  H   -3.95456147745337      0.53561285088257      3.00091425123822
  H   -1.72329877860938      3.68906098001828      1.14562749569717
  H   0.28990896652961      0.17299258460133      2.54145504760980
  H   -1.86549129989551     -0.75868352277808      3.30704229657227
  C   0.75473358384867      2.57397695058624      1.37487607885233
  N   1.36169564300095      3.42110283656513      2.46022570610482
  H   0.62169123300797      3.22369220022562      0.51010180023663
  H   1.32081631542243      1.95202605562340      1.18574271954126
  H   0.70849429368753      4.16087464343454      2.70803606804417
  H   1.46079028504724      2.85311221888223      3.30010492309983
  Cu  3.08540917110882      4.22987455800124      2.05645248560604
