18
Coordinates from ORCA-job orca
  C   -2.98536038544082      2.19023453744341      2.04700314181314
  C   -1.77563572416103      2.72231247024652      1.61508414363096
  C   -0.58532195223249      2.01823860665587      1.80110467811969
  C   -0.62562032118856      0.76918549769844      2.42255131155558
  C   -1.83373435780633      0.23528067203836      2.85602698289089
  C   -3.01559804232244      0.94620236789301      2.66984192638175
  H   -3.90372911963540      2.74222143525821      1.89226674040221
  H   -3.95738157682788      0.52900150356602      3.00288246200526
  H   -1.75488144929366      3.68840609783432      1.12377252794712
  H   0.29309186629097      0.21053330519849      2.56100737413353
  H   -1.85416880341749     -0.73659305554960      3.33263333849182
  C   0.72604275286883      2.61782330518126      1.37760858251038
  N   1.36404653959642      3.41104542531416      2.47689334441534
  H   0.59507233855090      3.28573465347369      0.52841212389470
  H   1.45453565531716      1.81755704025000      1.08137220119959
  H   0.71630015496892      4.13827085455818      2.77607928262351
  H   1.48840847583288      2.80792024844832      3.28808599740074
  Cu  3.07639394890063      4.24108503448957      2.06041384058196
