18
Coordinates from ORCA-job orca
  C   -3.00660723076078      2.17603579963210      2.02563542914099
  C   -1.80243258362343      2.72284968815941      1.59526130917516
  C   -0.60162713010930      2.04278267686819      1.80319348997749
  C   -0.62549417392402      0.80293473922065      2.44437098812414
  C   -1.82722722509824      0.25592454508930      2.87682652713454
  C   -3.02020222240395      0.94280321055114      2.66896836120725
  H   -3.93292129844901      2.70942306756847      1.85417799946573
  H   -3.95720678900753      0.51419238345971      3.00093044563570
  H   -1.79415861064644      3.68184189668715      1.09026034832981
  H   0.30156926531121      0.26169895214016      2.59484656767672
  H   -1.83484328550837     -0.70874025398187      3.36816838721542
  C   0.69310865824632      2.66880368561929      1.38519657158125
  N   1.37548005333825      3.39161346573616      2.49482758893400
  H   0.56586237186697      3.35796983322070      0.55524152398617
  H   1.53538229668821      1.73852019374072      0.96946619734596
  H   0.74870616344837      4.11534256921398      2.84641447644516
  H   1.51274242128995      2.75018990845776      3.27363390958271
  Cu  3.09232931934235      4.21027363861532      2.06561987904009
