18
Coordinates from ORCA-job orca
  C   -2.97581968791041      1.86156032863053      1.65940317992383
  C   -1.84070522764828      2.62299112453791      1.41573566765746
  C   -0.62635072188996      2.28622172695975      2.01747697363072
  C   -0.55825121045075      1.16792556075207      2.85312047950775
  C   -1.69386490027110      0.40876386835832      3.09331628595714
  C   -2.90502945715457      0.75445485899037      2.49864667231065
  H   -3.91504336892862      2.13338156325361      1.19571975944504
  H   -3.78906304532480      0.15910492297050      2.68669668263942
  H   -1.89384243402102      3.48516459360165      0.76228724712711
  H   0.38094380718694      0.87169954854875      3.30498514073200
  H   -1.63412840325350     -0.45654348845775      3.74039032460162
  C   0.54270011210868      3.14957197714175      1.76338843675133
  N   1.48751116677326      3.33722571878154      2.79297709553341
  H   0.33392074122791      4.05042455604830      1.20390015423993
  H   1.06150799584337      2.38429951529480      0.21664977842771
  H   1.82735552121772      4.28003617669209      2.92385515959723
  H   1.33837750907839      2.83192026165756      3.65529335530688
  Cu  2.28224160341714      2.30625718623705      1.12919760660954
