18
Coordinates from ORCA-job orca
  C   -2.94609604579662      1.81072569528945      1.58886856510513
  C   -1.82775586951865      2.61121166403055      1.42373712736200
  C   -0.65161971030902      2.33421036920686      2.13211412157815
  C   -0.60755426064131      1.23229646293067      2.99621062843459
  C   -1.72823232540503      0.43437232922631      3.15559282233689
  C   -2.89796264909731      0.72106750925195      2.45395098636888
  H   -3.85384718753673      2.03369716108521      1.04421080905806
  H   -3.76967842368275      0.09232364535346      2.58057245600559
  H   -1.85594739940269      3.45635265471130      0.74739556490718
  H   0.29632188823032      0.98110387393351      3.53675954865476
  H   -1.69149386502243     -0.41562954574948      3.82383421196808
  C   0.47598928715567      3.23424376675701      1.93689245069480
  N   1.53508010377824      3.30062641464791      2.81369477943995
  H   0.28806473810634      4.14515951727441      1.38362401198089
  H   1.10773083138477      2.34579761107496     -0.22589512127805
  H   2.00648413940720      4.18909696206146      2.92942571479693
  H   1.55831236782654      2.69731608525772      3.62549078040374
  Cu  1.98466438052366      2.43048782365615      0.96656054218180
