18
Coordinates from ORCA-job orca
  C   -2.95295931443006      1.82813467486451      1.61129705322159
  C   -1.82381092850442      2.60629319539259      1.40471401119137
  C   -0.63107246441573      2.30640358971682      2.06937789635875
  C   -0.57950387926112      1.20597943480922      2.93071533289658
  C   -1.71033419953908      0.42904474775227      3.13275607183167
  C   -2.89845724470705      0.73820012803538      2.47517755220369
  H   -3.87482582482179      2.07085676661878      1.09933462616609
  H   -3.77818931967810      0.12807686535169      2.63374793222598
  H   -1.86128996070351      3.45185455969231      0.72894651672511
  H   0.34027253116433      0.93625924766634      3.43533388792927
  H   -1.66479170666303     -0.42156227703722      3.79996913741576
  C   0.52229670526423      3.18765292282604      1.84380645017102
  N   1.51366195470869      3.31137853498367      2.81235461242221
  H   0.32272716188406      4.09892325712700      1.29819418009984
  H   0.99725839751428      2.43258878209494      0.02920634083992
  H   1.93365652803939      4.22177242909776      2.94208814288214
  H   1.45335947663221      2.74793804852116      3.64881971266490
  Cu  2.11446208751703      2.35466509248574      1.01720054275307
