18
Coordinates from ORCA-job orca
  C   -2.99334733447976      1.88238117181518      1.69334689719523
  C   -1.85768618130362      2.63683303544506      1.42659912243932
  C   -0.63005827908889      2.27875102788106      1.98609649091343
  C   -0.54935214380926      1.14810299415863      2.80347815132907
  C   -1.68452191472587      0.39642210880312      3.06723209718121
  C   -2.90939397489402      0.76275524826098      2.51396962404184
  H   -3.94316252728576      2.17030575961958      1.26201467286549
  H   -3.79349773073116      0.17341201618210      2.71979523298369
  H   -1.92224438373648      3.51013605039066      0.78917300010088
  H   0.40180244690065      0.83899788282702      3.22086830664344
  H   -1.61409886729886     -0.47914558383069      3.69935867892362
  C   0.54813027191000      3.12798261057180      1.71272443992101
  N   1.47743065308206      3.34518346743253      2.77144856847560
  H   0.33628494526518      4.02445178444774      1.14631700135189
  H   1.12212476086893      2.35606005965554      0.33294552986898
  H   1.75966824418394      4.30744884616331      2.90024767844456
  H   1.26116733736887      2.88223559575068      3.64393716018123
  Cu  2.41321467777448      2.27214592442434      1.22348734713816
