18
Coordinates from ORCA-job orca
  C   -2.98715100088352      2.18929508744150      2.04559015651446
  C   -1.77784962530255      2.72257116836505      1.61384721705064
  C   -0.58670031286106      2.02025862783496      1.80134104742392
  C   -0.62572662543487      0.77179180704119      2.42408721457519
  C   -1.83333718593649      0.23683805967345      2.85748645586682
  C   -3.01608023981645      0.94597104722353      2.66980348320279
  H   -3.90615111651810      2.73988991786780      1.88966517520451
  H   -3.95749292430970      0.52783390734465      3.00271390555744
  H   -1.75807889912207      3.68821885642984      1.12164916290472
  H   0.29364152390998      0.21442177311176      2.56324476692168
  H   -1.85275966969359     -0.73458116370056      3.33505707790327
  C   0.72325630195134      2.62209211654904      1.37822786017120
  N   1.36465907820648      3.40996723589863      2.47834032116040
  H   0.59278157234310      3.29136176428965      0.53026904271467
  H   1.46363063875836      1.80821864421285      1.07225432135348
  H   0.71835112555973      4.13693535210277      2.78163089891771
  H   1.49027895174261      2.80390923678705      3.28712011020360
  Cu  3.07718840740740      4.23946656152509      2.06071178235164
