18
Coordinates from ORCA-job orca
  C   -2.94463169500561      1.80326137497650      1.58138925294018
  C   -1.82966120411359      2.60966398892909      1.42627807817923
  C   -0.65866965802860      2.34077913898064      2.14769495660639
  C   -0.61767361847384      1.24165829119400      3.01630600578251
  C   -1.73560785841069      0.43873461573242      3.16636953823414
  C   -2.89918210548000      0.71662215235407      2.45064587717800
  H   -3.84776420801110      2.01901498302676      1.02633596352252
  H   -3.76873472804808      0.08353930013344      2.57031102949388
  H   -1.85501544785249      3.45278970185251      0.74738091033753
  H   0.28021953940674      0.99891771981102      3.57018238760390
  H   -1.70226171051483     -0.40791831740708      3.83896563709559
  C   0.46332972278214      3.24471117317761      1.95921982059045
  N   1.54463234479875      3.28889363350349      2.80627934003398
  H   0.27264667759633      4.16314862486168      1.41859514380783
  H   1.15050214250863      2.33643079833640     -0.29095900282122
  H   2.02007774373296      4.17453770446688      2.93029447929009
  H   1.58946435548899      2.66717027843252      3.60362044776170
  Cu  1.96078970762439      2.46250483763765      0.94413013436289
