18
Coordinates from ORCA-job orca
  C   -2.97623972695112      2.18738836678570      2.04602350711987
  C   -1.76483541874343      2.72576656584188      1.62730612633778
  C   -0.57657038206317      2.01514471904753      1.79932594510323
  C   -0.62052605663611      0.75278286117336      2.39304790502601
  C   -1.83071842423531      0.21180383582719      2.81266124798709
  C   -3.01039070961782      0.92959166896494      2.64088602220910
  H   -3.89318159974157      2.74480061735058      1.90260999650689
  H   -3.95366454329334      0.50749203290831      2.96341178367670
  H   -1.74121930712776      3.70209615932096      1.15665986572303
  H   0.29655227715627      0.18913839933087      2.52279830253970
  H   -1.85410552845255     -0.77027930480744      3.26773740423190
  C   0.74235206784401      2.61344650457254      1.38823599576222
  N   1.35940078159900      3.41450102456872      2.49981974608862
  H   0.60737322693032      3.29185721360896      0.54658762498863
  H   1.38671049807159      1.91638009124499      1.13679092192570
  H   0.70455476262838      4.13877482195802      2.78817623918599
  H   1.47393673105823      2.81220239782581      3.31324018893825
  Cu  3.07303135157485      4.25157202447574      2.10772117664795
