18
Coordinates from ORCA-job orca
  C   -2.97235223202267      1.80533298994299      1.59620024581903
  C   -1.88030182123478      2.64697162643099      1.48294614601082
  C   -0.70937536361444      2.38656494466233      2.21590252865521
  C   -0.65177826130761      1.26334143295944      3.05983501678284
  C   -1.74778821457769      0.43001058339733      3.16791941263322
  C   -2.90699890226126      0.69719649317531      2.43653986514522
  H   -3.87283050100867      2.00887016104539      1.03279247124175
  H   -3.75985306264761      0.03677613079901      2.52478569206799
  H   -1.91801457024173      3.50952792383846      0.82991705728733
  H   0.24079161022301      1.03531809056968      3.62760734978486
  H   -1.70595620515201     -0.43248101630130      3.81925549502995
  C   0.37852614501939      3.31083672223546      2.05581084135111
  N   1.53727052730137      3.28850765109984      2.76572758238979
  H   0.19260539593679      4.22822553288167      1.50972111106749
  H   1.57167319887973      2.13046421816155     -0.50523677121155
  H   2.05660728047558      4.15417950002225      2.86789027346338
  H   1.66616917089323      2.62384285616948      3.52060392285235
  Cu  1.90406580533941      2.51097415890998      0.90482175962909
