18
Coordinates from ORCA-job orca
  C   -3.02384074576650      2.15088562462390      1.98499666650279
  C   -1.82510564498062      2.72296028242185      1.57124550842457
  C   -0.61299869096473      2.07236931817947      1.80375505348387
  C   -0.61921794941346      0.83596590904146      2.45301012323424
  C   -1.81459794395557      0.26512797334980      2.87015354112104
  C   -3.01987743221164      0.92278127979117      2.63722259873127
  H   -3.95896016318304      2.66202627251369      1.79468134147357
  H   -3.95205272388776      0.47500286022728      2.95723426520727
  H   -1.83010017665450      3.67919387445193      1.06127052095677
  H   0.31692209109066      0.31569424691411      2.62108422931765
  H   -1.80835015203497     -0.69594953786771      3.36847202395590
  C   0.67243705267225      2.72391862099519      1.40167310843361
  N   1.39694597238577      3.34992701940267      2.53996467736917
  H   0.53102957063617      3.47149389609938      0.62710774332044
  H   1.52043054994494      1.79843633141365      0.87305835844024
  H   0.78851926038452      4.04818001364346      2.96692645064418
  H   1.55348085102561      2.64910623544178      3.26177893681528
  Cu  3.10779627491328      4.18733977935569      2.11940485256693
