18
Coordinates from ORCA-job orca
  C   -2.98920039674364      2.18169159771961      2.03663776735828
  C   -1.78063522883607      2.72830626591596      1.61947665197975
  C   -0.58660726350848      2.02939941530329      1.80142934847958
  C   -0.62204019589523      0.77080889702473      2.40381656798392
  C   -1.82875706571622      0.22267991732364      2.82276999580311
  C   -3.01442965745200      0.92847036254275      2.64074569632985
  H   -3.91039966972883      2.72982289472387      1.88504407385175
  H   -3.95513875369912      0.49992683814977      2.96223705294397
  H   -1.76372345839046      3.70188491994561      1.14309999006064
  H   0.29960791819119      0.21594336463496      2.53789960472538
  H   -1.84525787827594     -0.75653790079286      3.28425469879280
  C   0.72184308406081      2.64439185649519      1.39321357850945
  N   1.36258605672455      3.40793922300626      2.51025207520798
  H   0.59114871626111      3.33150464824255      0.55970782239299
  H   1.46358238450392      1.83904883820911      1.06854539850456
  H   0.71604487185288      4.12791281365682      2.82956962266826
  H   1.48913502692365      2.78469463520270      3.30566180710441
  Cu  3.07470150972832      4.24657141269472      2.10867824730205
