18
Coordinates from ORCA-job orca
  C   -2.98336161686731      2.18498328578446      2.04182682951605
  C   -1.77347339263522      2.72764842011094      1.62378639561628
  C   -0.58220027999892      2.02292008484414      1.80040611449775
  C   -0.62172917683327      0.76232739971114      2.39823144042444
  C   -1.83005519657360      0.21763206716101      2.81769219983857
  C   -3.01284606784998      0.92935979379060      2.64110525413635
  H   -3.90251081709468      2.73771674686526      1.89453740154614
  H   -3.95476128216925      0.50388365870746      2.96315205652234
  H   -1.75339122827110      3.70272814122762      1.15048828901308
  H   0.29773584782428      0.20316695651248      2.52972436737021
  H   -1.84983256672805     -0.76312933005986      3.27576993242652
  C   0.73100890171517      2.63046025259070      1.39088617169485
  N   1.35996162450211      3.41207233384919      2.50560969728899
  H   0.59840870811221      3.31325347685879      0.55337756916285
  H   1.43754288438245      1.86519272822722      1.09780026101738
  H   0.70851192091254      4.13327079784991      2.81066449542776
  H   1.48182017806551      2.79858463507235      3.30940249329247
  Cu  3.07163155950756      4.25238855089526      2.10857903120667
