18
Coordinates from ORCA-job orca
  C   -3.00256799877407      1.88860946875202      1.70538347994652
  C   -1.86741172540950      2.64109822310224      1.42992392845276
  C   -0.63476085192872      2.27675041207188      1.97384292514044
  C   -0.54915381161281      1.14267197704122      2.78594380667140
  C   -1.68390689949988      0.39380933665180      3.05994019353025
  C   -2.91347861794061      0.76583455054070      2.52096497238473
  H   -3.95595798486471      2.18087342612013      1.28492724785863
  H   -3.79730331008428      0.17863895142655      2.73410971739686
  H   -1.93638028518455      3.51743614213593      0.79712747208722
  H   0.40595360567331      0.83010039569170      3.19159199808512
  H   -1.60973219177016     -0.48395705882068      3.68863749480973
  C   0.54701103000438      3.11850362003205      1.68822299762861
  N   1.48466532470399      3.33831718077096      2.75363564963096
  H   0.32798950808683      4.01931865608664      1.13066993235259
  H   1.14658442983980      2.35801675967669      0.38704834650952
  H   1.72819003566634      4.31055111807708      2.89045526795161
  H   1.23919524589942      2.88924438827198      3.62638174011092
  Cu  2.49352449719554      2.26864245237011      1.26423282945117
