18
Coordinates from ORCA-job orca
  C   -2.98028034063256      2.18621386285233      2.04383942735338
  C   -1.76970566744388      2.72693157741262      1.62546808815993
  C   -0.57977277681159      2.01950278273103      1.79991228910307
  C   -0.62132585147845      0.75810233181710      2.39585546073747
  C   -1.83048371837079      0.21510394255729      2.81543280547382
  C   -3.01187092993329      0.92959181019182      2.64108983181701
  H   -3.89843017093765      2.74108805204108      1.89835107050497
  H   -3.95439602294862      0.50564467763112      2.96337477143320
  H   -1.74804188836016      3.70260379365201      1.15341778459658
  H   0.29707048428850      0.19691301941960      2.52646135750766
  H   -1.85188281646463     -0.76627351612679      3.27212094735275
  C   0.73587845220286      2.62314765711546      1.38970048406093
  N   1.35944337707196      3.41335650390871      2.50314818574215
  H   0.60228016860696      3.30397285367449      0.55032227742436
  H   1.41785956557366      1.88509814435486      1.11411261057138
  H   0.70613370236009      4.13552662021176      2.80114640811922
  H   1.47853180165490      2.80466321318198      3.31105105499508
  Cu  3.07145263162314      4.25327267337219      2.10823514504573
