18
Coordinates from ORCA-job orca
  C   -2.98234122003747      2.18504578253432      2.04187610064980
  C   -1.77218417078604      2.72709301568631      1.62383504338871
  C   -0.58126720414689      2.02168128455544      1.80022626293867
  C   -0.62144471502350      0.76104673781973      2.39789480771072
  C   -1.83006262096464      0.21691694965787      2.81730790968756
  C   -3.01246468195617      0.92933064264970      2.64095609995742
  H   -3.90120566698929      2.73831523449882      1.89478284647912
  H   -3.95458116212217      0.50435704001626      2.96307955358423
  H   -1.75160284849094      3.70220706834586      1.15063795496358
  H   0.29773515046467      0.20137817570709      2.52942705594297
  H   -1.85033683595157     -0.76387448168090      3.27529960650278
  C   0.73264137684018      2.62806061904379      1.39040481711789
  N   1.36052051354417      3.41168179717060      2.50480384177951
  H   0.59988693374932      3.31040785495743      0.55236808209522
  H   1.42629676887499      1.87656553164253      1.10415086349501
  H   0.70876080127821      4.13313467305760      2.80837741834813
  H   1.48182171540259      2.79930034899657      3.30954043490054
  Cu  3.07228786631502      4.25181172533964      2.10807130045683
