18
Coordinates from ORCA-job orca
  C   -3.02566936605569      2.14946769493955      1.98333738666407
  C   -1.82753975539225      2.72314648442429      1.56997923147708
  C   -0.61458077499463      2.07475547172162      1.80444618252669
  C   -0.61930088101718      0.83895104506871      2.45499850814754
  C   -1.81406154168973      0.26668664183810      2.87168175064710
  C   -3.02023885897301      0.92218222926070      2.63696765542930
  H   -3.96144653625646      2.65887823049156      1.79164453348544
  H   -3.95197854924094      0.47324434134803      2.95661367299696
  H   -1.83372486877693      3.67882131118175      1.05900789771455
  H   0.31752823571712      0.32025381507650      2.62392495970833
  H   -1.80673459376142     -0.69391171766586      3.37088959450527
  C   0.66898867681600      2.72915127221729      1.40359034542823
  N   1.39795963154476      3.34874426213800      2.54140001944526
  H   0.52873187568557      3.47748478724476      0.62985237837258
  H   1.52815833873937      1.79131898610698      0.86301463432779
  H   0.79214099096258      4.04729820489337      2.97187916707124
  H   1.55421038288628      2.64513800773080      3.26055281349405
  Cu  3.11001759380698      4.18284893198263      2.11925926855733
