18
Coordinates from ORCA-job orca
  C   -2.99582392249941      2.17835293710836      2.03171309793129
  C   -1.78895428857175      2.72948912679142      1.61522062057843
  C   -0.59192504977468      2.03706962590826      1.80263374122971
  C   -0.62256894023154      0.78044948795475      2.40955968228247
  C   -1.82736206378992      0.22828262830175      2.82804677335520
  C   -3.01620833930385      0.92753802249180      2.64062189498008
  H   -3.91929577005574      2.72141565098039      1.87587872719207
  H   -3.95549673252933      0.49544464972347      2.96149376270867
  H   -1.77572651237496      3.70154285735089      1.13572099663824
  H   0.30146797928796      0.23032064816530      2.54616793046804
  H   -1.84012915809136     -0.74942581020120      3.29282067252518
  C   0.71110053606618      2.66061572413002      1.39644876845057
  N   1.36429902751561      3.40457415961944      2.51562655091444
  H   0.58237796556237      3.35220348995845      0.56735288140641
  H   1.50100181908136      1.80220717273552      1.03247798994304
  H   0.72334768070942      4.12361785087024      2.84926576863866
  H   1.49464866135470      2.77107984854849      3.30218026177076
  Cu  3.07770710764537      4.23968192956137      2.10980987898548
