18
Properties=species:S:1:pos:R:3 pbc="F F F"
C       -2.78160000       1.62225000       1.41563000
C       -1.61854000       2.38835000       1.29308000
C       -0.56584000       2.24109000       2.21106000
C       -0.70074000       1.30521000       3.25809000
C       -1.86682000       0.54178000       3.37625000
C       -2.90589000       0.69993000       2.45665000
H       -3.58678000       1.74390000       0.70260000
H       -3.80681000       0.10737000       2.55029000
H       -1.53915000       3.09887000       0.47943000
H        0.08521000       1.15562000       3.98572000
H       -1.96431000      -0.17437000       4.18209000
C        0.66625000       3.09585000       2.02163000
N        1.69508000       2.84655000       3.02619000
H        1.35682000       3.19224000       3.95390000
H        2.53775000       3.40814000       2.76861000
H        0.37930000       4.17082000       2.04680000
H        0.97211768       2.96935628       0.95548477
Cu       3.28391775       1.51493173       3.21122352
